*HEADING
cubit(/home/wzhenlin/workspace/cubitMesh/2D/studyR/R10.inp): 02/05/2018: 17:13:5
version: 13.2
**
********************************** P A R T S **********************************
*PART, NAME=Part-Default
**
********************************** N O D E S **********************************
*NODE, NSET=ALLNODES
       1,    6.614378e+00,    2.350000e+01,    0.000000e+00
       2,    7.599342e+00,    2.250000e+01,    0.000000e+00
       3,    1.000000e+01,    1.600000e+01,    0.000000e+00
       4,    8.216475e+00,    2.169996e+01,    0.000000e+00
       5,    8.749724e+00,    2.084173e+01,    0.000000e+00
       6,    9.193646e+00,    1.993407e+01,    0.000000e+00
       7,    9.543709e+00,    1.898624e+01,    0.000000e+00
       8,    9.796338e+00,    1.800793e+01,    0.000000e+00
       9,    9.948954e+00,    1.700911e+01,    0.000000e+00
      10,    1.300000e+01,    1.600000e+01,    0.000000e+00
      11,    1.225000e+01,    1.600000e+01,    0.000000e+00
      12,    1.150000e+01,    1.600000e+01,    0.000000e+00
      13,    1.075000e+01,    1.600000e+01,    0.000000e+00
      14,    1.300000e+01,    2.350000e+01,    0.000000e+00
      15,    1.300000e+01,    1.693750e+01,    0.000000e+00
      16,    1.300000e+01,    1.787500e+01,    0.000000e+00
      17,    1.300000e+01,    1.881250e+01,    0.000000e+00
      18,    1.300000e+01,    1.975000e+01,    0.000000e+00
      19,    1.300000e+01,    2.068750e+01,    0.000000e+00
      20,    1.300000e+01,    2.162500e+01,    0.000000e+00
** ... 6354 like lines cut
**
********************************** E L E M E N T S ****************************
*ELEMENT, TYPE=S4R, ELSET=EB128
    3715,    1979,    2059,    3938,    3819
    3716,    3819,    3938,    3937,    3820
    3717,    3820,    3937,    3936,    3821
    3718,    3821,    3936,    3935,    3822
    3719,    3822,    3935,    3934,    3823
    3720,    3823,    3934,    3933,    3824
    3721,    3824,    3933,    3932,    3825
    3722,    3825,    3932,    3931,    3826
    3723,    3826,    3931,    3930,    3827
    3724,    3827,    3930,    3929,    3828
    3725,    3828,    3929,    3928,    3829
    3726,    3829,    3928,    3927,    3830
    3727,    3830,    3927,    3926,    3831
    3728,    3831,    3926,    3925,    3832
    3729,    3832,    3925,    3924,    3833
    3730,    3833,    3924,    2100,    2026
*ELEMENT, TYPE=S4R, ELSET=EB129
    3731,    2100,    3924,    3939,    2106
    3732,    3924,    3925,    3940,    3939
    3733,    3925,    3926,    3941,    3940
    3734,    3926,    3927,    3942,    3941
    3735,    3927,    3928,    3943,    3942
    3736,    3928,    3929,    3944,    3943
    3737,    3929,    3930,    3945,    3944
    3738,    3930,    3931,    3946,    3945
    3739,    3931,    3932,    3947,    3946
    3740,    3932,    3933,    3948,    3947
    3741,    3933,    3934,    3949,    3948
    3742,    3934,    3935,    3950,    3949
    3743,    3935,    3936,    3951,    3950
    3744,    3936,    3937,    3952,    3951
    3745,    3937,    3938,    3953,    3952
    3746,    3938,    2059,    2072,    3953
    3747,    2106,    3939,    3954,    2105
    3748,    3939,    3940,    3955,    3954
    3749,    3940,    3941,    3956,    3955
    3750,    3941,    3942,    3957,    3956
** ... 92 like lines cut
*ELEMENT, TYPE=S4R, ELSET=EB6
       1,       1,       2,      25,      24
       2,       2,       4,      26,      25
       3,       4,       5,      27,      26
       4,       5,       6,      28,      27
       5,       6,       7,      29,      28
       6,       7,       8,      30,      29
       7,       8,       9,      31,      30
       8,       9,       3,      13,      31
       9,      24,      25,      32,      23
      10,      25,      26,      33,      32
      11,      26,      27,      34,      33
      12,      27,      28,      35,      34
      13,      28,      29,      36,      35
      14,      29,      30,      37,      36
      15,      30,      31,      38,      37
      16,      31,      13,      12,      38
      17,      23,      32,      39,      22
      18,      32,      33,      40,      39
      19,      33,      34,      41,      40
      20,      34,      35,      42,      41
** ... 12 like lines cut
*ELEMENT, TYPE=S4R, ELSET=EB7
      33,      46,      48,      70,      67
      34,      48,      49,      71,      70
      35,      49,      50,      72,      71
      36,      50,      51,      73,      72
      37,      51,      52,      74,      73
      38,      52,      53,      75,      74
      39,      53,      47,      76,      75
      40,      47,      54,      56,      76
      41,      67,      70,      77,      68
      42,      70,      71,      78,      77
      43,      71,      72,      79,      78
      44,      72,      73,      80,      79
      45,      73,      74,      81,      80
      46,      74,      75,      82,      81
      47,      75,      76,      83,      82
      48,      76,      56,      57,      83
      49,      68,      77,      84,      69
      50,      77,      78,      85,      84
      51,      78,      79,      86,      85
      52,      79,      80,      87,      86
** ... 12 like lines cut
*ELEMENT, TYPE=S4R, ELSET=EB9
      65,       1,      24,     110,      91
      66,      24,      23,     111,     110
      67,      23,      22,     112,     111
      68,      22,      14,      99,     112
      69,      91,     110,     113,     104
      70,     110,     111,     114,     113
      71,     111,     112,     115,     114
      72,     112,      99,      98,     115
      73,     104,     113,     116,     105
      74,     113,     114,     117,     116
      75,     114,     115,     118,     117
      76,     115,      98,      97,     118
      77,     105,     116,     119,     106
      78,     116,     117,     120,     119
      79,     117,     118,     121,     120
      80,     118,      97,      96,     121
      81,     106,     119,     122,     107
      82,     119,     120,     123,     122
      83,     120,     121,     124,     123
      84,     121,      96,      95,     124
** ... 12 like lines cut
*ELEMENT, TYPE=S4R, ELSET=EB10
      97,     131,     140,     150,     133
      98,     140,     141,     151,     150
      99,     141,     142,     152,     151
     100,     142,     139,     149,     152
     101,     133,     150,     153,     134
     102,     150,     151,     154,     153
     103,     151,     152,     155,     154
     104,     152,     149,     148,     155
     105,     134,     153,     156,     135
     106,     153,     154,     157,     156
     107,     154,     155,     158,     157
     108,     155,     148,     147,     158
     109,     135,     156,     159,     136
     110,     156,     157,     160,     159
     111,     157,     158,     161,     160
     112,     158,     147,     146,     161
     113,     136,     159,     162,     137
     114,     159,     160,     163,     162
     115,     160,     161,     164,     163
     116,     161,     146,     145,     164
** ... 12 like lines cut
*ELEMENT, TYPE=S4R, ELSET=EB11
     129,      10,      11,     241,     240
     130,      11,      12,     242,     241
     131,      12,      13,     243,     242
     132,      13,       3,     244,     243
     133,       3,     171,     245,     244
     134,     171,     172,     246,     245
     135,     172,     173,     247,     246
     136,     173,     174,     248,     247
     137,     174,     175,     249,     248
     138,     175,     176,     250,     249
     139,     176,     177,     251,     250
     140,     177,     178,     252,     251
     141,     178,     179,     253,     252
     142,     179,     180,     254,     253
     143,     180,     181,     255,     254
     144,     181,     182,     256,     255
     145,     182,     183,     257,     256
     146,     183,     184,     258,     257
     147,     184,     185,     259,     258
     148,     185,      46,     260,     259
** ... 364 like lines cut
*ELEMENT, TYPE=S4R, ELSET=EB12
     513,     586,     587,     605,     604
     514,     587,     588,     606,     605
     515,     588,     589,     607,     606
     516,     589,     590,     608,     607
     517,     590,     591,     609,     608
     518,     591,     592,     610,     609
     519,     592,     593,     611,     610
     520,     593,     100,     103,     611
     521,     604,     605,     612,     603
     522,     605,     606,     613,     612
     523,     606,     607,     614,     613
     524,     607,     608,     615,     614
     525,     608,     609,     616,     615
     526,     609,     610,     617,     616
     527,     610,     611,     618,     617
     528,     611,     103,     102,     618
     529,     603,     612,     619,     602
     530,     612,     613,     620,     619
     531,     613,     614,     621,     620
     532,     614,     615,     622,     621
** ... 12 like lines cut
*ELEMENT, TYPE=S4R, ELSET=EB14
     545,     131,     627,     645,     140
     546,     627,     628,     646,     645
     547,     628,     629,     647,     646
     548,     629,     630,     648,     647
     549,     630,     631,     649,     648
     550,     631,     632,     650,     649
     551,     632,     626,     651,     650
     552,     626,     633,     635,     651
     553,     140,     645,     652,     141
     554,     645,     646,     653,     652
     555,     646,     647,     654,     653
     556,     647,     648,     655,     654
     557,     648,     649,     656,     655
     558,     649,     650,     657,     656
     559,     650,     651,     658,     657
     560,     651,     635,     636,     658
     561,     141,     652,     659,     142
     562,     652,     653,     660,     659
     563,     653,     654,     661,     660
     564,     654,     655,     662,     661
** ... 12 like lines cut
*ELEMENT, TYPE=S4R, ELSET=EB15
     577,     666,     675,     685,     668
     578,     675,     676,     686,     685
     579,     676,     677,     687,     686
     580,     677,     674,     684,     687
     581,     668,     685,     688,     669
     582,     685,     686,     689,     688
     583,     686,     687,     690,     689
     584,     687,     684,     683,     690
     585,     669,     688,     691,     670
     586,     688,     689,     692,     691
     587,     689,     690,     693,     692
     588,     690,     683,     682,     693
     589,     670,     691,     694,     671
     590,     691,     692,     695,     694
     591,     692,     693,     696,     695
     592,     693,     682,     681,     696
     593,     671,     694,     697,     672
     594,     694,     695,     698,     697
     595,     695,     696,     699,     698
     596,     696,     681,     680,     699
** ... 12 like lines cut
*ELEMENT, TYPE=S4R, ELSET=EB17
     609,     586,     604,     725,     706
     610,     604,     603,     726,     725
     611,     603,     602,     727,     726
     612,     602,     594,     714,     727
     613,     706,     725,     728,     719
     614,     725,     726,     729,     728
     615,     726,     727,     730,     729
     616,     727,     714,     713,     730
     617,     719,     728,     731,     720
     618,     728,     729,     732,     731
     619,     729,     730,     733,     732
     620,     730,     713,     712,     733
     621,     720,     731,     734,     721
     622,     731,     732,     735,     734
     623,     732,     733,     736,     735
     624,     733,     712,     711,     736
     625,     721,     734,     737,     722
     626,     734,     735,     738,     737
     627,     735,     736,     739,     738
     628,     736,     711,     710,     739
** ... 12 like lines cut
*ELEMENT, TYPE=S4R, ELSET=EB18
     641,     746,     747,     765,     764
     642,     747,     748,     766,     765
     643,     748,     749,     767,     766
     644,     749,     750,     768,     767
     645,     750,     751,     769,     768
     646,     751,     752,     770,     769
     647,     752,     753,     771,     770
     648,     753,     715,     718,     771
     649,     764,     765,     772,     763
     650,     765,     766,     773,     772
     651,     766,     767,     774,     773
     652,     767,     768,     775,     774
     653,     768,     769,     776,     775
     654,     769,     770,     777,     776
     655,     770,     771,     778,     777
     656,     771,     718,     717,     778
     657,     763,     772,     779,     762
     658,     772,     773,     780,     779
     659,     773,     774,     781,     780
     660,     774,     775,     782,     781
** ... 12 like lines cut
*ELEMENT, TYPE=S4R, ELSET=EB20
     673,     666,     787,     805,     675
     674,     787,     788,     806,     805
     675,     788,     789,     807,     806
     676,     789,     790,     808,     807
     677,     790,     791,     809,     808
     678,     791,     792,     810,     809
     679,     792,     786,     811,     810
     680,     786,     793,     795,     811
     681,     675,     805,     812,     676
     682,     805,     806,     813,     812
     683,     806,     807,     814,     813
     684,     807,     808,     815,     814
     685,     808,     809,     816,     815
     686,     809,     810,     817,     816
     687,     810,     811,     818,     817
     688,     811,     795,     796,     818
     689,     676,     812,     819,     677
     690,     812,     813,     820,     819
     691,     813,     814,     821,     820
     692,     814,     815,     822,     821
** ... 12 like lines cut
*ELEMENT, TYPE=S4R, ELSET=EB21
    6452,     847,    6110,    6112,     844
    6451,     834,     844,    6112,    4110
    6450,     837,    4110,    6112,    6110
    6449,     836,    5546,    6111,     846
     709,     828,     845,     848,     829
     710,     845,     846,     849,     848
     711,     846,     847,     850,     849
     712,     847,     844,     843,     850
     713,     829,     848,     851,     830
     714,     848,     849,     852,     851
     715,     849,     850,     853,     852
     716,     850,     843,     842,     853
     717,     830,     851,     854,     831
     718,     851,     852,     855,     854
     719,     852,     853,     856,     855
     720,     853,     842,     841,     856
     721,     831,     854,     857,     832
     722,     854,     855,     858,     857
     723,     855,     856,     859,     858
     724,     856,     841,     840,     859
** ... 20 like lines cut
*ELEMENT, TYPE=S4R, ELSET=EB23
     737,     746,     764,     885,     866
     738,     764,     763,     886,     885
     739,     763,     762,     887,     886
     740,     762,     754,     874,     887
     741,     866,     885,     888,     879
     742,     885,     886,     889,     888
     743,     886,     887,     890,     889
     744,     887,     874,     873,     890
     745,     879,     888,     891,     880
     746,     888,     889,     892,     891
     747,     889,     890,     893,     892
     748,     890,     873,     872,     893
     749,     880,     891,     894,     881
     750,     891,     892,     895,     894
     751,     892,     893,     896,     895
     752,     893,     872,     871,     896
     753,     881,     894,     897,     882
     754,     894,     895,     898,     897
     755,     895,     896,     899,     898
     756,     896,     871,     870,     899
** ... 20 like lines cut
*ELEMENT, TYPE=S4R, ELSET=EB24
    5398,     931,    4616,    5433,    4936
    5409,     933,    5437,    5440,    5439
    5410,     932,    5434,    5440,    5437
    5397,     878,    4936,    5433,    5432
    5396,     875,    5432,    5433,    5431
    5395,     913,    5431,    5433,    4616
    4802,     922,    4145,    4941,    4154
    4795,     931,    4936,    4938,    4138
    4466,     943,    4624,    4626,    4068
    4464,     937,    4149,    4626,    4135
    4463,     936,    4135,    4626,    4624
    5408,     926,    5439,    5440,    4121
    5407,     925,    4121,    5440,    5434
    5406,     939,    4940,    5438,    4158
    5405,     940,    4158,    5438,    4620
    4797,     877,    4151,    4938,    4937
    4796,     878,    4937,    4938,    4936
    4465,     944,    4068,    4626,    4149
    4801,     939,    4154,    4941,    4940
    4800,     932,    4940,    4941,    4939
** ... 108 like lines cut
*ELEMENT, TYPE=S4R, ELSET=EB26
    5670,     962,    4117,    5613,    5612
    5676,     984,    5617,    5619,    5609
    5675,     983,    5609,    5619,    5614
    5669,     961,    5612,    5613,    5611
    5668,     982,    5611,    5613,    5604
    5667,     981,    5604,    5613,    4117
    5674,     961,    5611,    5616,    5615
    5673,     960,    5615,    5616,    5614
    5672,     983,    5614,    5616,    5607
    5681,     958,    5621,    5622,    5620
    5680,     985,    5620,    5622,    4100
    5679,     984,    4100,    5622,    5617
    5678,     960,    5614,    5619,    5618
    5677,     959,    5618,    5619,    5617
    5666,     983,    5606,    5610,    5609
    5665,     984,    5609,    5610,    4101
    5664,     977,    4101,    5610,    4581
    5671,     982,    5607,    5616,    5611
    5663,     976,    4581,    5610,    5606
    5662,     982,    5603,    5608,    5607
** ... 108 like lines cut
*ELEMENT, TYPE=S4R, ELSET=EB27
    6218,    1007,    4170,    5985,    5372
    6215,     997,    5983,    5985,    4170
    6216,     994,    5984,    5985,    5983
    5311,    1006,    4171,    5371,    4706
    6217,    1004,    5372,    5985,    5984
    6026,     956,    5875,    5878,    4104
    5318,    1010,    5370,    5374,    5333
    5317,    1003,    5333,    5374,    5373
    6014,    1025,    4975,    5871,    5870
    6012,     999,    5869,    5871,    4966
    6011,    1022,    4966,    5871,    4975
    6019,    1023,    4973,    5876,    5872
    6018,     953,    5873,    5874,    4744
    6017,     955,    4744,    5874,    5872
    6016,    1023,    5872,    5874,    4969
    6015,     987,    4969,    5874,    5873
    6030,     957,    5877,    5880,    5623
    6013,     998,    5870,    5871,    5869
    6029,     954,    5623,    5880,    5879
    6028,     998,    5879,    5880,    5870
** ... 108 like lines cut
*ELEMENT, TYPE=S4R, ELSET=EB29
    4479,    1065,    4054,    4639,    4634
    4480,    1028,    4637,    4639,    4054
    6000,    1053,    5863,    5864,    4597
    6010,    1042,    5867,    5868,    4294
    6009,    1057,    4294,    5868,    4591
    6002,    1055,    5861,    5864,    4285
    6001,    1056,    4285,    5864,    5863
    5813,    1045,    4034,    5720,    5717
    5812,     924,    5717,    5720,    4210
    5810,    1045,    5717,    5718,    4094
    5809,    1046,    4094,    5718,    4146
    5808,     923,    4146,    5718,    5435
    5807,     924,    5435,    5718,    5717
    4478,    1037,    4060,    4636,    4635
    4477,    1036,    4635,    4636,    4634
    4476,    1065,    4634,    4636,    4050
    4475,    1064,    4050,    4636,    4060
    5811,     906,    4210,    5720,    5719
    5999,    1052,    4597,    5864,    5861
    5998,    1054,    4602,    5862,    4590
** ... 108 like lines cut
*ELEMENT, TYPE=S4R, ELSET=EB45
    6653,    1098,    6212,    6213,    1095
     898,    1070,    1069,    1087,    1086
     899,    1069,    1068,    1088,    1087
    6645,    1083,    4434,    6210,    6209
    6656,    1077,    4444,    6214,    1080
     902,    1086,    1087,    1090,    1089
     903,    1087,    1088,    1091,    1090
    6652,    1084,    1095,    6213,    4440
    6651,    1085,    4440,    6213,    6212
     906,    1089,    1090,    1093,    1092
     907,    1090,    1091,    1094,    1093
    6650,    1084,    4437,    6211,    1095
    6649,    1092,    1095,    6211,    6209
     910,    1092,    1093,    1096,    1095
     911,    1093,    1094,    1097,    1096
    6655,    1098,    1080,    6214,    6212
    6654,    1085,    6212,    6214,    4444
     914,    1095,    1096,    1099,    1098
     915,    1096,    1097,    1100,    1099
    6648,    1083,    6209,    6211,    4437
** ... 28 like lines cut
*ELEMENT, TYPE=S4R, ELSET=EB47
    6624,    1101,    5639,    6199,    6197
     922,    1068,    1069,    1107,    1106
     923,    1069,    1070,    1108,    1107
    6623,    1103,    5593,    6198,    6195
    6622,    1106,    6195,    6198,    6197
    6626,    1106,    6197,    6199,    1068
    6625,    1066,    1068,    6199,    5639
    6611,    1105,    6192,    6193,    4425
    6612,    1108,    1070,    6193,    6192
    6613,    1067,    4425,    6193,    1070
    6614,    1105,    5599,    6194,    6192
    6615,    1104,    1107,    6194,    5599
    6616,    1108,    6192,    6194,    1107
    6617,    1103,    6195,    6196,    5596
    6618,    1106,    1107,    6196,    6195
    6619,    1104,    5596,    6196,    1107
    6620,    1102,    5587,    6198,    5593
    6621,    1101,    6197,    6198,    5587
*ELEMENT, TYPE=S4R, ELSET=EB49
    6440,    1123,    6105,    6106,    1141
     929,    1113,    1112,    1130,    1129
     930,    1112,    1111,    1131,    1130
    6436,    1138,    1141,    6104,    6102
    6435,    1127,    6102,    6104,    5795
     933,    1129,    1130,    1133,    1132
     934,    1130,    1131,    1134,    1133
    6434,    1138,    6102,    6103,    1135
    6433,    1126,    1135,    6103,    5792
     937,    1132,    1133,    1136,    1135
     938,    1133,    1134,    1137,    1136
    6432,    1127,    5792,    6103,    6102
    6431,    1126,    5773,    6101,    1135
     941,    1135,    1136,    1139,    1138
     942,    1136,    1137,    1140,    1139
    6430,    1132,    1135,    6101,    6099
    6429,    1125,    6099,    6101,    5773
     945,    1138,    1139,    1142,    1141
     946,    1139,    1140,    1143,    1142
    6439,    1128,    1141,    6106,    4455
** ... 28 like lines cut
*ELEMENT, TYPE=S4R, ELSET=EB51
    6421,    1183,    1186,    6097,    5748
     977,    1111,    1112,    1185,    1184
     978,    1112,    1113,    1186,    1185
    6420,    1110,    5748,    6097,    6096
    6422,    1113,    6096,    6097,    1186
    6401,    1179,    4352,    6086,    1184
    6400,    1111,    1184,    6086,    6085
    6390,    1182,    6081,    6082,    5745
    6391,    1185,    1186,    6082,    6081
    6392,    1183,    5745,    6082,    1186
    6393,    1182,    4993,    6083,    6081
    6394,    1181,    1184,    6083,    4993
    6395,    1185,    6081,    6083,    1184
    6396,    1180,    4356,    6084,    4985
    6397,    1179,    1184,    6084,    4356
    6398,    1181,    4985,    6084,    1184
    6399,    1109,    6085,    6086,    4352
*ELEMENT, TYPE=S4R, ELSET=EB53
    6703,    1150,    1178,    6238,    6044
     953,    1148,    1147,    1165,    1164
     954,    1147,    1146,    1166,    1165
    6707,    1150,    4458,    6240,    1178
    6706,    1156,    1178,    6240,    6239
     957,    1164,    1165,    1168,    1167
     958,    1165,    1166,    1169,    1168
    6705,    1149,    6239,    6240,    4458
    6704,    1175,    6236,    6238,    1178
     961,    1167,    1168,    1171,    1170
     962,    1168,    1169,    1172,    1171
    6699,    1151,    6236,    6237,    6047
    6698,    1169,    6233,    6235,    1172
     965,    1170,    1171,    1174,    1173
     966,    1171,    1172,    1175,    1174
    6697,    1152,    1172,    6235,    6050
    6696,    1153,    6050,    6235,    6233
     969,    1173,    1174,    1177,    1176
     970,    1174,    1175,    1178,    1177
    6702,    1151,    6044,    6238,    6236
** ... 28 like lines cut
*ELEMENT, TYPE=S4R, ELSET=EB55
    6673,    1191,    1194,    6223,    5318
     984,    1146,    1147,    1193,    1192
     985,    1147,    1148,    1194,    1193
    6674,    1148,    6222,    6223,    1194
    6670,    1193,    1194,    6221,    6219
    6672,    1145,    5318,    6223,    6222
    6671,    1191,    5410,    6221,    1194
    6660,    1144,    6215,    6217,    5384
    6661,    1146,    1192,    6217,    6215
    6662,    1187,    5384,    6217,    1192
    6663,    1188,    5388,    6218,    5403
    6664,    1187,    1192,    6218,    5388
    6665,    1189,    5403,    6218,    1192
    6666,    1190,    5407,    6220,    6219
    6667,    1189,    1192,    6220,    5407
    6668,    1193,    6219,    6220,    1192
    6669,    1190,    6219,    6221,    5410
*ELEMENT, TYPE=S4R, ELSET=EB57
    6389,    1209,    6079,    6080,    1227
     991,    1199,    1198,    1216,    1215
     992,    1198,    1197,    1217,    1216
    6388,    1214,    1227,    6080,    5824
    6383,    1224,    6076,    6077,    1221
     995,    1215,    1216,    1219,    1218
     996,    1216,    1217,    1220,    1219
    6382,    1212,    1221,    6077,    6037
    6381,    1213,    6037,    6077,    6076
     999,    1218,    1219,    1222,    1221
    1000,    1219,    1220,    1223,    1222
    6387,    1206,    5824,    6080,    6079
    6386,    1214,    6040,    6078,    1227
    1003,    1221,    1222,    1225,    1224
    1004,    1222,    1223,    1226,    1225
    6385,    1224,    1227,    6078,    6076
    6384,    1213,    6076,    6078,    6040
    1007,    1224,    1225,    1228,    1227
    1008,    1225,    1226,    1229,    1228
    6380,    1212,    6034,    6075,    1221
** ... 28 like lines cut
*ELEMENT, TYPE=S4R, ELSET=EB59
    6354,    1195,    6062,    6063,    6012
    1063,    1197,    1198,    1306,    1305
    1064,    1198,    1199,    1307,    1306
    6356,    1300,    6012,    6063,    1305
    6355,    1197,    1305,    6063,    6062
    6353,    1302,    6020,    6061,    1305
    6352,    1300,    1305,    6061,    6015
    6342,    1196,    5322,    6057,    6055
    6343,    1304,    1307,    6057,    5322
    6344,    1199,    6055,    6057,    1307
    6345,    1303,    6058,    6059,    6026
    6346,    1306,    1307,    6059,    6058
    6347,    1304,    6026,    6059,    1307
    6348,    1303,    6023,    6060,    6058
    6349,    1302,    1305,    6060,    6023
    6350,    1306,    6058,    6060,    1305
    6351,    1301,    6015,    6061,    6020
*ELEMENT, TYPE=S4R, ELSET=EB61
    6965,    1256,    6369,    6370,    1253
    1015,    1234,    1233,    1251,    1250
    1016,    1233,    1232,    1252,    1251
    6964,    1246,    1253,    6370,    4989
    6963,    1247,    4989,    6370,    6369
    1019,    1250,    1251,    1254,    1253
    1020,    1251,    1252,    1255,    1254
    6973,    1262,    1244,    6374,    6372
    6972,    1249,    6372,    6374,    5557
    1023,    1253,    1254,    1257,    1256
    1024,    1254,    1255,    1258,    1257
    6971,    1262,    6372,    6373,    1259
    6970,    1248,    1259,    6373,    5000
    1027,    1256,    1257,    1260,    1259
    1028,    1257,    1258,    1261,    1260
    6969,    1249,    5000,    6373,    6372
    6968,    1248,    4997,    6371,    1259
    1031,    1259,    1260,    1263,    1262
    1032,    1260,    1261,    1264,    1263
    6967,    1256,    1259,    6371,    6369
** ... 28 like lines cut
*ELEMENT, TYPE=S4R, ELSET=EB63
    6953,    1315,    6363,    6364,    1314
    1070,    1232,    1233,    1314,    1313
    1071,    1233,    1234,    1315,    1314
    6954,    1312,    6363,    6365,    5512
    6952,    1311,    1314,    6364,    5509
    6956,    1231,    5512,    6365,    1234
    6955,    1315,    1234,    6365,    6363
    6941,    1308,    4344,    6359,    6358
    6942,    1230,    1232,    6359,    4344
    6943,    1313,    6358,    6359,    1232
    6944,    1309,    4348,    6361,    5281
    6945,    1308,    6358,    6361,    4348
    6946,    1313,    6360,    6361,    6358
    6947,    1310,    5281,    6361,    6360
    6948,    1310,    6360,    6362,    5285
    6949,    1313,    1314,    6362,    6360
    6950,    1311,    5285,    6362,    1314
    6951,    1312,    5509,    6364,    6363
*ELEMENT, TYPE=S4R, ELSET=EB65
    6757,    1277,    1299,    6266,    6265
    1039,    1269,    1268,    1286,    1285
    1040,    1268,    1267,    1287,    1286
    6758,    1271,    5859,    6266,    1299
    6756,    1270,    6265,    6266,    5859
    1043,    1285,    1286,    1289,    1288
    1044,    1286,    1287,    1290,    1289
    6755,    1296,    6262,    6264,    1299
    6754,    1271,    1299,    6264,    4461
    1047,    1288,    1289,    1292,    1291
    1048,    1289,    1290,    1293,    1292
    6750,    1272,    6262,    6263,    4465
    6749,    1290,    6259,    6261,    1293
    1051,    1291,    1292,    1295,    1294
    1052,    1292,    1293,    1296,    1295
    6748,    1273,    1293,    6261,    4468
    6747,    1274,    4468,    6261,    6259
    1055,    1294,    1295,    1298,    1297
    1056,    1295,    1296,    1299,    1298
    6753,    1272,    4461,    6264,    6262
** ... 28 like lines cut
*ELEMENT, TYPE=S4R, ELSET=EB67
    6725,    1269,    6248,    6249,    1323
    1077,    1267,    1268,    1322,    1321
    1078,    1268,    1269,    1323,    1322
    6723,    1266,    4839,    6249,    6248
    6722,    1320,    4832,    6247,    1323
    6721,    1322,    1323,    6247,    6245
    6724,    1320,    1323,    6249,    4839
    6711,    1265,    6241,    6243,    4477
    6712,    1267,    1321,    6243,    6241
    6713,    1316,    4477,    6243,    1321
    6714,    1317,    4480,    6244,    4824
    6715,    1316,    1321,    6244,    4480
    6716,    1318,    4824,    6244,    1321
    6717,    1319,    4828,    6246,    6245
    6718,    1318,    1321,    6246,    4828
    6719,    1322,    6245,    6246,    1321
    6720,    1319,    6245,    6247,    4832
*ELEMENT, TYPE=S4R, ELSET=EB68
    5866,    1415,    5762,    5763,    5761
    5865,    1550,    5761,    5763,    5760
    5864,    1396,    5760,    5763,    5759
    5992,    1270,    5859,    5860,    5858
    5991,    1379,    5858,    5860,    5856
    6338,    1474,    6051,    6054,    5757
    6337,    1549,    5757,    6054,    5382
    6336,    1154,    5382,    6054,    6053
    6335,    1153,    6053,    6054,    6051
    6333,    1474,    5775,    6052,    6051
    6332,    1153,    6051,    6052,    6050
    6331,    1152,    6050,    6052,    6048
    5901,    1126,    5792,    5794,    5774
    5900,    1473,    5774,    5794,    5791
    5899,    1472,    5791,    5794,    5793
    5898,    1556,    5786,    5790,    5789
    5897,    1557,    5789,    5790,    5395
    6334,    1473,    6048,    6052,    5775
    5895,    1383,    5487,    5790,    5786
    5894,    1555,    5783,    5788,    5787
** ... 1452 like lines cut
*ELEMENT, TYPE=S4R, ELSET=EB70
    6268,    1686,    4770,    6008,    4786
    5830,    1674,    4763,    5735,    5734
    5750,    1668,    4800,    5673,    5672
    5570,    1689,    5313,    5541,    4776
    6270,    1692,    4817,    6008,    5732
    6269,    1693,    5732,    6008,    4770
    6267,    1685,    4786,    6008,    4817
    6266,    1676,    4905,    6007,    4816
    5484,    1663,    4560,    5481,    5480
    5835,    1694,    4774,    5740,    5736
    5834,    1673,    5733,    5738,    5737
    5749,    1349,    5672,    5673,    5671
    5748,    1354,    5671,    5673,    4759
    5569,    1690,    4776,    5541,    4812
    5829,    1673,    5734,    5735,    5733
    5828,    1693,    5733,    5735,    5732
    5827,    1692,    5732,    5735,    4763
    5483,    1662,    5480,    5481,    5101
    6263,    1677,    4664,    6007,    4905
    5838,    1672,    5736,    5740,    5739
** ... 108 like lines cut
*ELEMENT, TYPE=S4R, ELSET=EB71
    6238,    1735,    4704,    5995,    4684
    6239,    1729,    5105,    5997,    5994
    6240,    1730,    5996,    5997,    5105
    6229,    1728,    4703,    5991,    5990
    6228,    1721,    5990,    5991,    5353
    6227,    1720,    5353,    5991,    5988
    6233,    1729,    5992,    5993,    5106
    6232,    1722,    5106,    5993,    5357
    6231,    1721,    5357,    5993,    5990
    6226,    1726,    5986,    5989,    4699
    6225,    1727,    4699,    5989,    5988
    6224,    1720,    5988,    5989,    4808
    6223,    1719,    4808,    5989,    5986
    6237,    1736,    4684,    5995,    5994
    6236,    1729,    5994,    5995,    5992
    6235,    1728,    5992,    5995,    4704
    6234,    1728,    5990,    5993,    5992
    6230,    1727,    5988,    5991,    4703
    6242,    1736,    5994,    5997,    4688
    6241,    1737,    4688,    5997,    5996
** ... 108 like lines cut
*ELEMENT, TYPE=S4R, ELSET=EB73
    5762,    1767,    5677,    5682,    5072
    5771,    1754,    5678,    5688,    5687
    5770,    1769,    5683,    5686,    4918
    4979,    1739,    5053,    5099,    5098
    5754,    1766,    5078,    5676,    5675
    5761,    1768,    5072,    5682,    5681
    5760,    1765,    5681,    5682,    5076
    5759,    1764,    5076,    5682,    5677
    5758,    1754,    5679,    5680,    5678
    5756,    1764,    5677,    5680,    5069
    5755,    1753,    5069,    5680,    5679
    5753,    1745,    5675,    5676,    5674
    5752,    1746,    5674,    5676,    5065
    5751,    1763,    5065,    5676,    5078
    4982,    1752,    5098,    5099,    5067
    4981,    1761,    5067,    5099,    5058
    4980,    1758,    5058,    5099,    5053
    5757,    1767,    5678,    5680,    5677
    5769,    1744,    4918,    5686,    5685
    5768,    1745,    5685,    5686,    5675
** ... 108 like lines cut
*ELEMENT, TYPE=S4R, ELSET=EB74
    6205,    1807,    5694,    5979,    5977
    6206,    1784,    5978,    5979,    5694
    6204,    1804,    5977,    5979,    5964
    6195,    1802,    5958,    5974,    5969
    6194,    1804,    5963,    5971,    5970
    6193,    1805,    5970,    5971,    5969
    6192,    1802,    5969,    5971,    5730
    6191,    1801,    5730,    5971,    5963
    6190,    1810,    5695,    5968,    5710
    6188,    1808,    5702,    5968,    5967
    6187,    1807,    5967,    5968,    5695
    6186,    1783,    5965,    5966,    5964
    6185,    1804,    5964,    5966,    5963
    6184,    1801,    5963,    5966,    5726
    6183,    1782,    5726,    5966,    5965
    6203,    1783,    5964,    5979,    5978
    6202,    1806,    5972,    5976,    5689
    6189,    1811,    5710,    5968,    5702
    6201,    1795,    5689,    5976,    5975
    6200,    1796,    5975,    5976,    5961
** ... 108 like lines cut
*ELEMENT, TYPE=S4R, ELSET=EB76
    1579,    1819,    1820,    1838,    1837
    1580,    1820,    1821,    1839,    1838
    1581,    1821,    1822,    1840,    1839
    1582,    1822,    1823,    1841,    1840
    1583,    1823,    1824,    1842,    1841
    1584,    1824,    1825,    1843,    1842
    1585,    1825,    1826,    1844,    1843
    6920,    1749,    4903,    6348,    6346
    1587,    1837,    1838,    1845,    1836
    1588,    1838,    1839,    1846,    1845
    1589,    1839,    1840,    1847,    1846
    1590,    1840,    1841,    1848,    1847
    1591,    1841,    1842,    1849,    1848
    1592,    1842,    1843,    1850,    1849
    1593,    1843,    1844,    1851,    1850
    6922,    1858,    6346,    6348,    1828
    1595,    1836,    1845,    1852,    1835
    1596,    1845,    1846,    1853,    1852
    1597,    1846,    1847,    1854,    1853
    1598,    1847,    1848,    1855,    1854
** ... 20 like lines cut
*ELEMENT, TYPE=S4R, ELSET=EB77
    6798,    1790,    6285,    6287,    5721
    1612,    1860,    1861,    1879,    1878
    1613,    1861,    1862,    1880,    1879
    1614,    1862,    1863,    1881,    1880
    1615,    1863,    1864,    1882,    1881
    1616,    1864,    1865,    1883,    1882
    1617,    1865,    1859,    1884,    1883
    1618,    1859,    1866,    1868,    1884
    6800,    1787,    5721,    6287,    1877
    1620,    1878,    1879,    1886,    1885
    1621,    1879,    1880,    1887,    1886
    1622,    1880,    1881,    1888,    1887
    1623,    1881,    1882,    1889,    1888
    1624,    1882,    1883,    1890,    1889
    1625,    1883,    1884,    1891,    1890
    1626,    1884,    1868,    1869,    1891
    6799,    1892,    1877,    6287,    6285
    1628,    1885,    1886,    1893,    1892
    1629,    1886,    1887,    1894,    1893
    1630,    1887,    1888,    1895,    1894
** ... 20 like lines cut
*ELEMENT, TYPE=S4R, ELSET=EB79
    1643,    1819,    1837,    1918,    1899
    1644,    1837,    1836,    1919,    1918
    1645,    1836,    1835,    1920,    1919
    1646,    1835,    1827,    1907,    1920
    1647,    1899,    1918,    1921,    1912
    1648,    1918,    1919,    1922,    1921
    1649,    1919,    1920,    1923,    1922
    1650,    1920,    1907,    1906,    1923
    1651,    1912,    1921,    1924,    1913
    1652,    1921,    1922,    1925,    1924
    1653,    1922,    1923,    1926,    1925
    1654,    1923,    1906,    1905,    1926
    1655,    1913,    1924,    1927,    1914
    1656,    1924,    1925,    1928,    1927
    1657,    1925,    1926,    1929,    1928
    1658,    1926,    1905,    1904,    1929
    1659,    1914,    1927,    1930,    1915
    1660,    1927,    1928,    1931,    1930
    1661,    1928,    1929,    1932,    1931
    1662,    1929,    1904,    1903,    1932
** ... 12 like lines cut
*ELEMENT, TYPE=S4R, ELSET=EB80
    1675,    1939,    1948,    1958,    1941
    1676,    1948,    1949,    1959,    1958
    1677,    1949,    1950,    1960,    1959
    1678,    1950,    1947,    1957,    1960
    1679,    1941,    1958,    1961,    1942
    1680,    1958,    1959,    1962,    1961
    1681,    1959,    1960,    1963,    1962
    1682,    1960,    1957,    1956,    1963
    1683,    1942,    1961,    1964,    1943
    1684,    1961,    1962,    1965,    1964
    1685,    1962,    1963,    1966,    1965
    1686,    1963,    1956,    1955,    1966
    1687,    1943,    1964,    1967,    1944
    1688,    1964,    1965,    1968,    1967
    1689,    1965,    1966,    1969,    1968
    1690,    1966,    1955,    1954,    1969
    1691,    1944,    1967,    1970,    1945
    1692,    1967,    1968,    1971,    1970
    1693,    1968,    1969,    1972,    1971
    1694,    1969,    1954,    1953,    1972
** ... 12 like lines cut
*ELEMENT, TYPE=S4R, ELSET=EB82
    1707,    1979,    1980,    1998,    1997
    1708,    1980,    1981,    1999,    1998
    1709,    1981,    1982,    2000,    1999
    1710,    1982,    1983,    2001,    2000
    1711,    1983,    1984,    2002,    2001
    1712,    1984,    1985,    2003,    2002
    1713,    1985,    1986,    2004,    2003
    1714,    1986,    1908,    1911,    2004
    1715,    1997,    1998,    2005,    1996
    1716,    1998,    1999,    2006,    2005
    1717,    1999,    2000,    2007,    2006
    1718,    2000,    2001,    2008,    2007
    1719,    2001,    2002,    2009,    2008
    1720,    2002,    2003,    2010,    2009
    1721,    2003,    2004,    2011,    2010
    1722,    2004,    1911,    1910,    2011
    1723,    1996,    2005,    2012,    1995
    1724,    2005,    2006,    2013,    2012
    1725,    2006,    2007,    2014,    2013
    1726,    2007,    2008,    2015,    2014
** ... 12 like lines cut
*ELEMENT, TYPE=S4R, ELSET=EB83
    1739,    1939,    2020,    2038,    1948
    1740,    2020,    2021,    2039,    2038
    1741,    2021,    2022,    2040,    2039
    1742,    2022,    2023,    2041,    2040
    1743,    2023,    2024,    2042,    2041
    1744,    2024,    2025,    2043,    2042
    1745,    2025,    2019,    2044,    2043
    1746,    2019,    2026,    2028,    2044
    1747,    1948,    2038,    2045,    1949
    1748,    2038,    2039,    2046,    2045
    1749,    2039,    2040,    2047,    2046
    1750,    2040,    2041,    2048,    2047
    1751,    2041,    2042,    2049,    2048
    1752,    2042,    2043,    2050,    2049
    1753,    2043,    2044,    2051,    2050
    1754,    2044,    2028,    2029,    2051
    1755,    1949,    2045,    2052,    1950
    1756,    2045,    2046,    2053,    2052
    1757,    2046,    2047,    2054,    2053
    1758,    2047,    2048,    2055,    2054
** ... 12 like lines cut
*ELEMENT, TYPE=S4R, ELSET=EB85
    1771,    1979,    1997,    2078,    2059
    1772,    1997,    1996,    2079,    2078
    1773,    1996,    1995,    2080,    2079
    1774,    1995,    1987,    2067,    2080
    1775,    2059,    2078,    2081,    2072
    1776,    2078,    2079,    2082,    2081
    1777,    2079,    2080,    2083,    2082
    1778,    2080,    2067,    2066,    2083
    1779,    2072,    2081,    2084,    2073
    1780,    2081,    2082,    2085,    2084
    1781,    2082,    2083,    2086,    2085
    1782,    2083,    2066,    2065,    2086
    1783,    2073,    2084,    2087,    2074
    1784,    2084,    2085,    2088,    2087
    1785,    2085,    2086,    2089,    2088
    1786,    2086,    2065,    2064,    2089
    1787,    2074,    2087,    2090,    2075
    1788,    2087,    2088,    2091,    2090
    1789,    2088,    2089,    2092,    2091
    1790,    2089,    2064,    2063,    2092
** ... 12 like lines cut
*ELEMENT, TYPE=S4R, ELSET=EB86
    1803,    2099,    2108,    2118,    2101
    1804,    2108,    2109,    2119,    2118
    1805,    2109,    2110,    2120,    2119
    1806,    2110,    2107,    2117,    2120
    1807,    2101,    2118,    2121,    2102
    1808,    2118,    2119,    2122,    2121
    1809,    2119,    2120,    2123,    2122
    1810,    2120,    2117,    2116,    2123
    1811,    2102,    2121,    2124,    2103
    1812,    2121,    2122,    2125,    2124
    1813,    2122,    2123,    2126,    2125
    1814,    2123,    2116,    2115,    2126
    1815,    2103,    2124,    2127,    2104
    1816,    2124,    2125,    2128,    2127
    1817,    2125,    2126,    2129,    2128
    1818,    2126,    2115,    2114,    2129
    1819,    2104,    2127,    2130,    2105
    1820,    2127,    2128,    2131,    2130
    1821,    2128,    2129,    2132,    2131
    1822,    2129,    2114,    2113,    2132
** ... 12 like lines cut
*ELEMENT, TYPE=S4R, ELSET=EB87
    1835,    2139,    2141,    2195,    2194
    1836,    2141,    2142,    2196,    2195
    1837,    2142,    2143,    2197,    2196
    1838,    2143,    2144,    2198,    2197
    1839,    2144,    2145,    2199,    2198
    1840,    2145,    2146,    2200,    2199
    1841,    2146,    2147,    2201,    2200
    1842,    2147,    2148,    2202,    2201
    1843,    2148,    2149,    2203,    2202
    1844,    2149,    2150,    2204,    2203
    1845,    2150,    2151,    2205,    2204
    1846,    2151,    2152,    2206,    2205
    1847,    2152,    2153,    2207,    2206
    1848,    2153,    2154,    2208,    2207
    1849,    2154,    2155,    2209,    2208
    1850,    2155,    2156,    2210,    2209
    1851,    2156,    2157,    2211,    2210
    1852,    2157,    2158,    2212,    2211
    1853,    2158,    2159,    2213,    2212
    1854,    2159,    2160,    2214,    2213
** ... 196 like lines cut
*ELEMENT, TYPE=S4R, ELSET=EB96
    2051,      54,      47,    2393,    2408
    2052,    2408,    2393,    2392,    2407
    2053,    2407,    2392,    2391,    2406
    2054,    2406,    2391,    2390,    2405
    2055,    2405,    2390,    2389,    2404
    2056,    2404,    2389,    2388,    2403
    2057,    2403,    2388,    2387,    2402
    2058,    2402,    2387,    2386,    2401
    2059,    2401,    2386,    2385,    2400
    2060,    2400,    2385,    2384,    2399
    2061,    2399,    2384,    2383,    2398
    2062,    2398,    2383,    2382,    2397
    2063,    2397,    2382,    2381,    2396
    2064,    2396,    2381,    2380,    2395
    2065,    2395,    2380,    2379,    2394
    2066,    2394,    2379,       2,       1
*ELEMENT, TYPE=S4R, ELSET=EB97
    2067,       2,    2379,    2409,       4
    2068,    2379,    2380,    2410,    2409
    2069,    2380,    2381,    2411,    2410
    2070,    2381,    2382,    2412,    2411
    2071,    2382,    2383,    2413,    2412
    2072,    2383,    2384,    2414,    2413
    2073,    2384,    2385,    2415,    2414
    2074,    2385,    2386,    2416,    2415
    2075,    2386,    2387,    2417,    2416
    2076,    2387,    2388,    2418,    2417
    2077,    2388,    2389,    2419,    2418
    2078,    2389,    2390,    2420,    2419
    2079,    2390,    2391,    2421,    2420
    2080,    2391,    2392,    2422,    2421
    2081,    2392,    2393,    2423,    2422
    2082,    2393,      47,      53,    2423
    2083,       4,    2409,    2424,       5
    2084,    2409,    2410,    2425,    2424
    2085,    2410,    2411,    2426,    2425
    2086,    2411,    2412,    2427,    2426
** ... 92 like lines cut
*ELEMENT, TYPE=S4R, ELSET=EB98
    2179,       1,      91,    2513,    2394
    2180,    2394,    2513,    2512,    2395
    2181,    2395,    2512,    2511,    2396
    2182,    2396,    2511,    2510,    2397
    2183,    2397,    2510,    2509,    2398
    2184,    2398,    2509,    2508,    2399
    2185,    2399,    2508,    2507,    2400
    2186,    2400,    2507,    2506,    2401
    2187,    2401,    2506,    2505,    2402
    2188,    2402,    2505,    2504,    2403
    2189,    2403,    2504,    2503,    2404
    2190,    2404,    2503,    2502,    2405
    2191,    2405,    2502,    2501,    2406
    2192,    2406,    2501,    2500,    2407
    2193,    2407,    2500,    2499,    2408
    2194,    2408,    2499,     132,      54
*ELEMENT, TYPE=S4R, ELSET=EB99
    2195,     132,    2499,    2529,     138
    2196,    2499,    2500,    2530,    2529
    2197,    2500,    2501,    2531,    2530
    2198,    2501,    2502,    2532,    2531
    2199,    2502,    2503,    2533,    2532
    2200,    2503,    2504,    2534,    2533
    2201,    2504,    2505,    2535,    2534
    2202,    2505,    2506,    2536,    2535
    2203,    2506,    2507,    2537,    2536
    2204,    2507,    2508,    2538,    2537
    2205,    2508,    2509,    2539,    2538
    2206,    2509,    2510,    2540,    2539
    2207,    2510,    2511,    2541,    2540
    2208,    2511,    2512,    2542,    2541
    2209,    2512,    2513,    2543,    2542
    2210,    2513,      91,     104,    2543
    2211,     138,    2529,    2544,     137
    2212,    2529,    2530,    2545,    2544
    2213,    2530,    2531,    2546,    2545
    2214,    2531,    2532,    2547,    2546
** ... 92 like lines cut
*ELEMENT, TYPE=S4R, ELSET=EB100
    2307,     633,     626,    2633,    2648
    2308,    2648,    2633,    2632,    2647
    2309,    2647,    2632,    2631,    2646
    2310,    2646,    2631,    2630,    2645
    2311,    2645,    2630,    2629,    2644
    2312,    2644,    2629,    2628,    2643
    2313,    2643,    2628,    2627,    2642
    2314,    2642,    2627,    2626,    2641
    2315,    2641,    2626,    2625,    2640
    2316,    2640,    2625,    2624,    2639
    2317,    2639,    2624,    2623,    2638
    2318,    2638,    2623,    2622,    2637
    2319,    2637,    2622,    2621,    2636
    2320,    2636,    2621,    2620,    2635
    2321,    2635,    2620,    2619,    2634
    2322,    2634,    2619,     587,     586
*ELEMENT, TYPE=S4R, ELSET=EB101
    2323,     587,    2619,    2649,     588
    2324,    2619,    2620,    2650,    2649
    2325,    2620,    2621,    2651,    2650
    2326,    2621,    2622,    2652,    2651
    2327,    2622,    2623,    2653,    2652
    2328,    2623,    2624,    2654,    2653
    2329,    2624,    2625,    2655,    2654
    2330,    2625,    2626,    2656,    2655
    2331,    2626,    2627,    2657,    2656
    2332,    2627,    2628,    2658,    2657
    2333,    2628,    2629,    2659,    2658
    2334,    2629,    2630,    2660,    2659
    2335,    2630,    2631,    2661,    2660
    2336,    2631,    2632,    2662,    2661
    2337,    2632,    2633,    2663,    2662
    2338,    2633,     626,     632,    2663
    2339,     588,    2649,    2664,     589
    2340,    2649,    2650,    2665,    2664
    2341,    2650,    2651,    2666,    2665
    2342,    2651,    2652,    2667,    2666
** ... 92 like lines cut
*ELEMENT, TYPE=S4R, ELSET=EB102
    2435,     586,     706,    2753,    2634
    2436,    2634,    2753,    2752,    2635
    2437,    2635,    2752,    2751,    2636
    2438,    2636,    2751,    2750,    2637
    2439,    2637,    2750,    2749,    2638
    2440,    2638,    2749,    2748,    2639
    2441,    2639,    2748,    2747,    2640
    2442,    2640,    2747,    2746,    2641
    2443,    2641,    2746,    2745,    2642
    2444,    2642,    2745,    2744,    2643
    2445,    2643,    2744,    2743,    2644
    2446,    2644,    2743,    2742,    2645
    2447,    2645,    2742,    2741,    2646
    2448,    2646,    2741,    2740,    2647
    2449,    2647,    2740,    2739,    2648
    2450,    2648,    2739,     667,     633
*ELEMENT, TYPE=S4R, ELSET=EB103
    2451,     667,    2739,    2769,     673
    2452,    2739,    2740,    2770,    2769
    2453,    2740,    2741,    2771,    2770
    2454,    2741,    2742,    2772,    2771
    2455,    2742,    2743,    2773,    2772
    2456,    2743,    2744,    2774,    2773
    2457,    2744,    2745,    2775,    2774
    2458,    2745,    2746,    2776,    2775
    2459,    2746,    2747,    2777,    2776
    2460,    2747,    2748,    2778,    2777
    2461,    2748,    2749,    2779,    2778
    2462,    2749,    2750,    2780,    2779
    2463,    2750,    2751,    2781,    2780
    2464,    2751,    2752,    2782,    2781
    2465,    2752,    2753,    2783,    2782
    2466,    2753,     706,     719,    2783
    2467,     673,    2769,    2784,     672
    2468,    2769,    2770,    2785,    2784
    2469,    2770,    2771,    2786,    2785
    2470,    2771,    2772,    2787,    2786
** ... 92 like lines cut
*ELEMENT, TYPE=S4R, ELSET=EB104
    2563,     793,     786,    2873,    2888
    2564,    2888,    2873,    2872,    2887
    2565,    2887,    2872,    2871,    2886
    2566,    2886,    2871,    2870,    2885
    2567,    2885,    2870,    2869,    2884
    2568,    2884,    2869,    2868,    2883
    2569,    2883,    2868,    2867,    2882
    2570,    2882,    2867,    2866,    2881
    2571,    2881,    2866,    2865,    2880
    2572,    2880,    2865,    2864,    2879
    2573,    2879,    2864,    2863,    2878
    2574,    2878,    2863,    2862,    2877
    2575,    2877,    2862,    2861,    2876
    2576,    2876,    2861,    2860,    2875
    2577,    2875,    2860,    2859,    2874
    2578,    2874,    2859,     747,     746
*ELEMENT, TYPE=S4R, ELSET=EB105
    2579,     747,    2859,    2889,     748
    2580,    2859,    2860,    2890,    2889
    2581,    2860,    2861,    2891,    2890
    2582,    2861,    2862,    2892,    2891
    2583,    2862,    2863,    2893,    2892
    2584,    2863,    2864,    2894,    2893
    2585,    2864,    2865,    2895,    2894
    2586,    2865,    2866,    2896,    2895
    2587,    2866,    2867,    2897,    2896
    2588,    2867,    2868,    2898,    2897
    2589,    2868,    2869,    2899,    2898
    2590,    2869,    2870,    2900,    2899
    2591,    2870,    2871,    2901,    2900
    2592,    2871,    2872,    2902,    2901
    2593,    2872,    2873,    2903,    2902
    2594,    2873,     786,     792,    2903
    2595,     748,    2889,    2904,     749
    2596,    2889,    2890,    2905,    2904
    2597,    2890,    2891,    2906,    2905
    2598,    2891,    2892,    2907,    2906
** ... 92 like lines cut
*ELEMENT, TYPE=S4R, ELSET=EB106
    2691,     746,     866,    2993,    2874
    2692,    2874,    2993,    2992,    2875
    2693,    2875,    2992,    2991,    2876
    2694,    2876,    2991,    2990,    2877
    2695,    2877,    2990,    2989,    2878
    2696,    2878,    2989,    2988,    2879
    2697,    2879,    2988,    2987,    2880
    2698,    2880,    2987,    2986,    2881
    2699,    2881,    2986,    2985,    2882
    2700,    2882,    2985,    2984,    2883
    2701,    2883,    2984,    2983,    2884
    2702,    2884,    2983,    2982,    2885
    2703,    2885,    2982,    2981,    2886
    2704,    2886,    2981,    2980,    2887
    2705,    2887,    2980,    2979,    2888
    2706,    2888,    2979,     827,     793
*ELEMENT, TYPE=S4R, ELSET=EB107
    2707,     827,    2979,    3009,     833
    2708,    2979,    2980,    3010,    3009
    2709,    2980,    2981,    3011,    3010
    2710,    2981,    2982,    3012,    3011
    2711,    2982,    2983,    3013,    3012
    2712,    2983,    2984,    3014,    3013
    2713,    2984,    2985,    3015,    3014
    2714,    2985,    2986,    3016,    3015
    2715,    2986,    2987,    3017,    3016
    2716,    2987,    2988,    3018,    3017
    2717,    2988,    2989,    3019,    3018
    2718,    2989,    2990,    3020,    3019
    2719,    2990,    2991,    3021,    3020
    2720,    2991,    2992,    3022,    3021
    2721,    2992,    2993,    3023,    3022
    2722,    2993,     866,     879,    3023
    2723,     833,    3009,    3024,     832
    2724,    3009,    3010,    3025,    3024
    2725,    3010,    3011,    3026,    3025
    2726,    3011,    3012,    3027,    3026
** ... 92 like lines cut
*ELEMENT, TYPE=S4R, ELSET=EB108
    6570,     906,    3114,    6172,    4208
    2820,    3128,    3113,    3112,    3127
    2821,    3127,    3112,    3111,    3126
    2822,    3126,    3111,    3110,    3125
    2823,    3125,    3110,    3109,    3124
    2824,    3124,    3109,    3108,    3123
    2825,    3123,    3108,    3107,    3122
    2826,    3122,    3107,    3106,    3121
    2827,    3121,    3106,    3105,    3120
    2828,    3120,    3105,    3104,    3119
    2829,    3119,    3104,    3103,    3118
    2830,    3118,    3103,    3102,    3117
    2831,    3117,    3102,    3101,    3116
    2832,    3116,    3101,    3100,    3115
    2833,    3115,    3100,    3099,    3114
    6571,    3099,    6171,    6172,    3114
    6474,     946,    6122,    6124,    4743
    6475,    3113,    3128,    6124,    6122
    6476,     953,    4743,    6124,    3128
    6569,     907,    4208,    6172,    6171
*ELEMENT, TYPE=S4R, ELSET=EB109
    6584,     911,    6177,    6179,    4612
    2836,    3099,    3100,    3130,    3129
    2837,    3100,    3101,    3131,    3130
    2838,    3101,    3102,    3132,    3131
    2839,    3102,    3103,    3133,    3132
    2840,    3103,    3104,    3134,    3133
    2841,    3104,    3105,    3135,    3134
    2842,    3105,    3106,    3136,    3135
    2843,    3106,    3107,    3137,    3136
    2844,    3107,    3108,    3138,    3137
    2845,    3108,    3109,    3139,    3138
    2846,    3109,    3110,    3140,    3139
    2847,    3110,    3111,    3141,    3140
    2848,    3111,    3112,    3142,    3141
    2849,    3112,    3113,    3143,    3142
    6583,    3174,    6177,    6178,    3159
    6582,     910,    3159,    6178,    4609
    2852,    3129,    3130,    3145,    3144
    2853,    3130,    3131,    3146,    3145
    2854,    3131,    3132,    3147,    3146
** ... 120 like lines cut
*ELEMENT, TYPE=S4R, ELSET=EB110
    6567,    3233,    3114,    6170,    6168
    2948,    3114,    3233,    3232,    3115
    2949,    3115,    3232,    3231,    3116
    2950,    3116,    3231,    3230,    3117
    2951,    3117,    3230,    3229,    3118
    2952,    3118,    3229,    3228,    3119
    2953,    3119,    3228,    3227,    3120
    2954,    3120,    3227,    3226,    3121
    2955,    3121,    3226,    3225,    3122
    2956,    3122,    3225,    3224,    3123
    2957,    3123,    3224,    3223,    3124
    2958,    3124,    3223,    3222,    3125
    2959,    3125,    3222,    3221,    3126
    2960,    3126,    3221,    3220,    3127
    2961,    3127,    3220,    3219,    3128
    6568,     906,    5719,    6170,    3114
    6477,     987,    5873,    6126,    6125
    6478,     953,    3128,    6126,    5873
    6479,    3219,    6125,    6126,    3128
    6566,    1026,    6168,    6170,    5719
*ELEMENT, TYPE=S4R, ELSET=EB111
    6542,    1330,    3322,    6158,    5897
    2964,    3219,    3220,    3235,    3234
    2965,    3220,    3221,    3236,    3235
    2966,    3221,    3222,    3237,    3236
    2967,    3222,    3223,    3238,    3237
    2968,    3223,    3224,    3239,    3238
    2969,    3224,    3225,    3240,    3239
    2970,    3225,    3226,    3241,    3240
    2971,    3226,    3227,    3242,    3241
    2972,    3227,    3228,    3243,    3242
    2973,    3228,    3229,    3244,    3243
    2974,    3229,    3230,    3245,    3244
    2975,    3230,    3231,    3246,    3245
    2976,    3231,    3232,    3247,    3246
    2977,    3232,    3233,    3248,    3247
    6546,    1035,    5900,    6160,    4058
    6545,    1044,    4058,    6160,    6159
    2980,    3234,    3235,    3250,    3249
    2981,    3235,    3236,    3251,    3250
    2982,    3236,    3237,    3252,    3251
** ... 150 like lines cut
*ELEMENT, TYPE=S4R, ELSET=EB118
    6885,    1659,    3339,    6330,    4662
    3076,    3353,    3338,    3337,    3352
    3077,    3352,    3337,    3336,    3351
    3078,    3351,    3336,    3335,    3350
    3079,    3350,    3335,    3334,    3349
    3080,    3349,    3334,    3333,    3348
    3081,    3348,    3333,    3332,    3347
    3082,    3347,    3332,    3331,    3346
    3083,    3346,    3331,    3330,    3345
    3084,    3345,    3330,    3329,    3344
    3085,    3344,    3329,    3328,    3343
    3086,    3343,    3328,    3327,    3342
    3087,    3342,    3327,    3326,    3341
    3088,    3341,    3326,    3325,    3340
    3089,    3340,    3325,    3324,    3339
    6886,    3324,    6328,    6330,    3339
    6762,    1699,    6267,    6269,    5123
    6763,    3338,    3353,    6269,    6267
    6764,    1706,    5123,    6269,    3353
    6884,    1660,    4662,    6330,    6328
*ELEMENT, TYPE=S4R, ELSET=EB119
    6860,    3429,    3430,    6318,    6317
    3092,    3324,    3325,    3355,    3354
    3093,    3325,    3326,    3356,    3355
    3094,    3326,    3327,    3357,    3356
    3095,    3327,    3328,    3358,    3357
    3096,    3328,    3329,    3359,    3358
    3097,    3329,    3330,    3360,    3359
    3098,    3330,    3331,    3361,    3360
    3099,    3331,    3332,    3362,    3361
    3100,    3332,    3333,    3363,    3362
    3101,    3333,    3334,    3364,    3363
    3102,    3334,    3335,    3365,    3364
    3103,    3335,    3336,    3366,    3365
    3104,    3336,    3337,    3367,    3366
    3105,    3337,    3338,    3368,    3367
    6883,    1661,    4803,    6329,    3354
    6882,    3324,    3354,    6329,    6328
    3108,    3354,    3355,    3370,    3369
    3109,    3355,    3356,    3371,    3370
    3110,    3356,    3357,    3372,    3371
** ... 150 like lines cut
*ELEMENT, TYPE=S4R, ELSET=EB120
    6888,    3458,    3339,    6332,    6331
    3204,    3339,    3458,    3457,    3340
    3205,    3340,    3457,    3456,    3341
    3206,    3341,    3456,    3455,    3342
    3207,    3342,    3455,    3454,    3343
    3208,    3343,    3454,    3453,    3344
    3209,    3344,    3453,    3452,    3345
    3210,    3345,    3452,    3451,    3346
    3211,    3346,    3451,    3450,    3347
    3212,    3347,    3450,    3449,    3348
    3213,    3348,    3449,    3448,    3349
    3214,    3349,    3448,    3447,    3350
    3215,    3350,    3447,    3446,    3351
    3216,    3351,    3446,    3445,    3352
    3217,    3352,    3445,    3444,    3353
    6889,    1659,    5054,    6332,    3339
    6765,    1780,    4728,    6271,    6270
    6766,    1706,    3353,    6271,    4728
    6767,    3444,    6270,    6271,    3353
    6887,    1739,    6331,    6332,    5054
*ELEMENT, TYPE=S4R, ELSET=EB121
    6901,    1754,    5687,    6338,    3518
    3220,    3444,    3445,    3475,    3474
    3221,    3445,    3446,    3476,    3475
    3222,    3446,    3447,    3477,    3476
    3223,    3447,    3448,    3478,    3477
    3224,    3448,    3449,    3479,    3478
    3225,    3449,    3450,    3480,    3479
    3226,    3450,    3451,    3481,    3480
    3227,    3451,    3452,    3482,    3481
    3228,    3452,    3453,    3483,    3482
    3229,    3453,    3454,    3484,    3483
    3230,    3454,    3455,    3485,    3484
    3231,    3455,    3456,    3486,    3485
    3232,    3456,    3457,    3487,    3486
    3233,    3457,    3458,    3488,    3487
    6903,    1756,    3548,    6339,    4925
    6902,    1755,    4925,    6339,    6337
    3236,    3474,    3475,    3490,    3489
    3237,    3475,    3476,    3491,    3490
    3238,    3476,    3477,    3492,    3491
** ... 120 like lines cut
*ELEMENT, TYPE=S4R, ELSET=EB122
    3331,    1866,    1859,    3578,    3593
    3332,    3593,    3578,    3577,    3592
    3333,    3592,    3577,    3576,    3591
    3334,    3591,    3576,    3575,    3590
    3335,    3590,    3575,    3574,    3589
    3336,    3589,    3574,    3573,    3588
    3337,    3588,    3573,    3572,    3587
    3338,    3587,    3572,    3571,    3586
    3339,    3586,    3571,    3570,    3585
    3340,    3585,    3570,    3569,    3584
    3341,    3584,    3569,    3568,    3583
    3342,    3583,    3568,    3567,    3582
    3343,    3582,    3567,    3566,    3581
    3344,    3581,    3566,    3565,    3580
    3345,    3580,    3565,    3564,    3579
    3346,    3579,    3564,    1820,    1819
*ELEMENT, TYPE=S4R, ELSET=EB123
    3347,    1820,    3564,    3594,    1821
    3348,    3564,    3565,    3595,    3594
    3349,    3565,    3566,    3596,    3595
    3350,    3566,    3567,    3597,    3596
    3351,    3567,    3568,    3598,    3597
    3352,    3568,    3569,    3599,    3598
    3353,    3569,    3570,    3600,    3599
    3354,    3570,    3571,    3601,    3600
    3355,    3571,    3572,    3602,    3601
    3356,    3572,    3573,    3603,    3602
    3357,    3573,    3574,    3604,    3603
    3358,    3574,    3575,    3605,    3604
    3359,    3575,    3576,    3606,    3605
    3360,    3576,    3577,    3607,    3606
    3361,    3577,    3578,    3608,    3607
    3362,    3578,    1859,    1865,    3608
    3363,    1821,    3594,    3609,    1822
    3364,    3594,    3595,    3610,    3609
    3365,    3595,    3596,    3611,    3610
    3366,    3596,    3597,    3612,    3611
** ... 92 like lines cut
*ELEMENT, TYPE=S4R, ELSET=EB124
    3459,    1819,    1899,    3698,    3579
    3460,    3579,    3698,    3697,    3580
    3461,    3580,    3697,    3696,    3581
    3462,    3581,    3696,    3695,    3582
    3463,    3582,    3695,    3694,    3583
    3464,    3583,    3694,    3693,    3584
    3465,    3584,    3693,    3692,    3585
    3466,    3585,    3692,    3691,    3586
    3467,    3586,    3691,    3690,    3587
    3468,    3587,    3690,    3689,    3588
    3469,    3588,    3689,    3688,    3589
    3470,    3589,    3688,    3687,    3590
    3471,    3590,    3687,    3686,    3591
    3472,    3591,    3686,    3685,    3592
    3473,    3592,    3685,    3684,    3593
    3474,    3593,    3684,    1940,    1866
*ELEMENT, TYPE=S4R, ELSET=EB125
    3475,    1940,    3684,    3714,    1946
    3476,    3684,    3685,    3715,    3714
    3477,    3685,    3686,    3716,    3715
    3478,    3686,    3687,    3717,    3716
    3479,    3687,    3688,    3718,    3717
    3480,    3688,    3689,    3719,    3718
    3481,    3689,    3690,    3720,    3719
    3482,    3690,    3691,    3721,    3720
    3483,    3691,    3692,    3722,    3721
    3484,    3692,    3693,    3723,    3722
    3485,    3693,    3694,    3724,    3723
    3486,    3694,    3695,    3725,    3724
    3487,    3695,    3696,    3726,    3725
    3488,    3696,    3697,    3727,    3726
    3489,    3697,    3698,    3728,    3727
    3490,    3698,    1899,    1912,    3728
    3491,    1946,    3714,    3729,    1945
    3492,    3714,    3715,    3730,    3729
    3493,    3715,    3716,    3731,    3730
    3494,    3716,    3717,    3732,    3731
** ... 92 like lines cut
*ELEMENT, TYPE=S4R, ELSET=EB126
    3587,    2026,    2019,    3818,    3833
    3588,    3833,    3818,    3817,    3832
    3589,    3832,    3817,    3816,    3831
    3590,    3831,    3816,    3815,    3830
    3591,    3830,    3815,    3814,    3829
    3592,    3829,    3814,    3813,    3828
    3593,    3828,    3813,    3812,    3827
    3594,    3827,    3812,    3811,    3826
    3595,    3826,    3811,    3810,    3825
    3596,    3825,    3810,    3809,    3824
    3597,    3824,    3809,    3808,    3823
    3598,    3823,    3808,    3807,    3822
    3599,    3822,    3807,    3806,    3821
    3600,    3821,    3806,    3805,    3820
    3601,    3820,    3805,    3804,    3819
    3602,    3819,    3804,    1980,    1979
*ELEMENT, TYPE=S4R, ELSET=EB127
    3603,    1980,    3804,    3834,    1981
    3604,    3804,    3805,    3835,    3834
    3605,    3805,    3806,    3836,    3835
    3606,    3806,    3807,    3837,    3836
    3607,    3807,    3808,    3838,    3837
    3608,    3808,    3809,    3839,    3838
    3609,    3809,    3810,    3840,    3839
    3610,    3810,    3811,    3841,    3840
    3611,    3811,    3812,    3842,    3841
    3612,    3812,    3813,    3843,    3842
    3613,    3813,    3814,    3844,    3843
    3614,    3814,    3815,    3845,    3844
    3615,    3815,    3816,    3846,    3845
    3616,    3816,    3817,    3847,    3846
    3617,    3817,    3818,    3848,    3847
    3618,    3818,    2019,    2025,    3848
    3619,    1981,    3834,    3849,    1982
    3620,    3834,    3835,    3850,    3849
    3621,    3835,    3836,    3851,    3850
    3622,    3836,    3837,    3852,    3851
** ... 92 like lines cut
**
********************************** P R O P E R T I E S ************************
*SHELL SECTION, ELSET=EB128, SECTION INTEGRATION=SIMPSON, MATERIAL=Default-Steel
1.000000e+00
*SHELL SECTION, ELSET=EB129, SECTION INTEGRATION=SIMPSON, MATERIAL=Default-Steel
1.000000e+00
*SHELL SECTION, ELSET=EB6, SECTION INTEGRATION=SIMPSON, MATERIAL=Default-Steel
1.000000e+00
*SHELL SECTION, ELSET=EB7, SECTION INTEGRATION=SIMPSON, MATERIAL=Default-Steel
1.000000e+00
*SHELL SECTION, ELSET=EB9, SECTION INTEGRATION=SIMPSON, MATERIAL=Default-Steel
1.000000e+00
*SHELL SECTION, ELSET=EB10, SECTION INTEGRATION=SIMPSON, MATERIAL=Default-Steel
1.000000e+00
*SHELL SECTION, ELSET=EB11, SECTION INTEGRATION=SIMPSON, MATERIAL=Default-Steel
1.000000e+00
*SHELL SECTION, ELSET=EB12, SECTION INTEGRATION=SIMPSON, MATERIAL=Default-Steel
1.000000e+00
*SHELL SECTION, ELSET=EB14, SECTION INTEGRATION=SIMPSON, MATERIAL=Default-Steel
1.000000e+00
*SHELL SECTION, ELSET=EB15, SECTION INTEGRATION=SIMPSON, MATERIAL=Default-Steel
1.000000e+00
*SHELL SECTION, ELSET=EB17, SECTION INTEGRATION=SIMPSON, MATERIAL=Default-Steel
1.000000e+00
*SHELL SECTION, ELSET=EB18, SECTION INTEGRATION=SIMPSON, MATERIAL=Default-Steel
1.000000e+00
*SHELL SECTION, ELSET=EB20, SECTION INTEGRATION=SIMPSON, MATERIAL=Default-Steel
1.000000e+00
*SHELL SECTION, ELSET=EB21, SECTION INTEGRATION=SIMPSON, MATERIAL=Default-Steel
1.000000e+00
*SHELL SECTION, ELSET=EB23, SECTION INTEGRATION=SIMPSON, MATERIAL=Default-Steel
1.000000e+00
*SHELL SECTION, ELSET=EB24, SECTION INTEGRATION=SIMPSON, MATERIAL=Default-Steel
1.000000e+00
*SHELL SECTION, ELSET=EB26, SECTION INTEGRATION=SIMPSON, MATERIAL=Default-Steel
1.000000e+00
*SHELL SECTION, ELSET=EB27, SECTION INTEGRATION=SIMPSON, MATERIAL=Default-Steel
1.000000e+00
*SHELL SECTION, ELSET=EB29, SECTION INTEGRATION=SIMPSON, MATERIAL=Default-Steel
1.000000e+00
*SHELL SECTION, ELSET=EB45, SECTION INTEGRATION=SIMPSON, MATERIAL=Default-Steel
1.000000e+00
** ... 102 like lines cut
**
*END PART
**
**
**
********************************** E N D   P A R T S **********************************
**
**
********************************** A S S E M B L Y ************************************
**
*ASSEMBLY, NAME=ASSEMBLY1
**
*INSTANCE, NAME=Part-Default_1, PART=Part-Default
*END INSTANCE
**
*END ASSEMBLY
**
**
**
*MATERIAL, NAME = Default-Steel
*ELASTIC, TYPE=ISOTROPIC
2.068000e+05, 2.900000e-01
*DENSITY
7.000000e-06
*CONDUCTIVITY,TYPE=ISO
4.500000e-02
*SPECIFIC HEAT
5.000000e+02
**
**
************************************** H I S T O R Y *************************************
**
*PREPRINT
**
**************************************** S T E P 1 ***************************************
*STEP,INC=100,NAME=Default Set
**
*STATIC
1, 1, 1e-05, 1
**
**
**
**
*END STEP
