*HEADING
cubit(/home/wzhenlin/workspace/cubitMesh/2D/studyR/R9.inp): 02/05/2018: 17:24:24
version: 13.2
**
********************************** P A R T S **********************************
*PART, NAME=Part-Default
**
********************************** N O D E S **********************************
*NODE, NSET=ALLNODES
       1,    4.974937e+00,    2.350000e+01,    0.000000e+00
       2,    6.224950e+00,    2.250000e+01,    0.000000e+00
       3,    5.622221e+00,    2.302785e+01,    0.000000e+00
       4,    9.000000e+00,    1.600000e+01,    0.000000e+00
       5,    6.931335e+00,    2.174078e+01,    0.000000e+00
       6,    7.545696e+00,    2.090535e+01,    0.000000e+00
       7,    8.059878e+00,    2.000479e+01,    0.000000e+00
       8,    8.467054e+00,    1.905106e+01,    0.000000e+00
       9,    8.761818e+00,    1.805683e+01,    0.000000e+00
      10,    8.940256e+00,    1.703529e+01,    0.000000e+00
      11,    1.300000e+01,    1.600000e+01,    0.000000e+00
      12,    1.200000e+01,    1.600000e+01,    0.000000e+00
      13,    1.100000e+01,    1.600000e+01,    0.000000e+00
      14,    1.000000e+01,    1.600000e+01,    0.000000e+00
      15,    1.300000e+01,    2.350000e+01,    0.000000e+00
      16,    1.300000e+01,    1.693750e+01,    0.000000e+00
      17,    1.300000e+01,    1.787500e+01,    0.000000e+00
      18,    1.300000e+01,    1.881250e+01,    0.000000e+00
      19,    1.300000e+01,    1.975000e+01,    0.000000e+00
      20,    1.300000e+01,    2.068750e+01,    0.000000e+00
** ... 6805 like lines cut
**
********************************** E L E M E N T S ****************************
*ELEMENT, TYPE=S4R, ELSET=EB128
    3956,    4176,    2247,    2246,    4175
    3957,    4177,    2146,    2247,    4176
    3958,    4177,    4176,    4175,    4174
    3959,    4178,    4054,    2146,    4177
    3960,    4178,    4177,    4174,    4173
    3961,    4179,    4055,    4054,    4178
    3962,    4179,    4178,    4173,    4172
    3963,    4180,    4056,    4055,    4179
    3964,    4180,    4179,    4172,    4171
    3965,    4181,    4057,    4056,    4180
    3966,    4181,    4180,    4171,    4170
    3967,    4182,    4058,    4057,    4181
    3968,    4182,    4181,    4170,    4169
    3969,    4183,    4059,    4058,    4182
    3970,    4183,    4182,    4169,    4168
    3971,    4184,    4060,    4059,    4183
    3972,    4184,    4183,    4168,    4167
    3973,    4185,    4061,    4060,    4184
    3974,    4185,    4184,    4167,    4166
    3975,    4186,    4062,    4061,    4185
** ... 8 like lines cut
*ELEMENT, TYPE=S4R, ELSET=EB129
    3984,    2291,    4162,    4190,    2297
    3985,    4162,    4163,    4191,    4190
    3986,    4163,    4164,    4192,    4191
    3987,    4164,    4165,    4193,    4192
    3988,    4165,    4166,    4194,    4193
    3989,    4166,    4167,    4195,    4194
    3990,    4167,    4168,    4196,    4195
    3991,    4168,    4169,    4197,    4196
    3992,    4169,    4170,    4198,    4197
    3993,    4170,    4171,    4199,    4198
    3994,    4171,    4172,    4200,    4199
    3995,    4172,    4173,    4201,    4200
    3996,    4173,    4174,    4202,    4201
    3997,    4174,    4175,    4203,    4202
    3998,    4175,    2246,    2260,    4203
    3999,    2297,    4190,    4204,    2296
    4000,    4190,    4191,    4205,    4204
    4001,    4191,    4192,    4206,    4205
    4002,    4192,    4193,    4207,    4206
    4003,    4193,    4194,    4208,    4207
** ... 85 like lines cut
*ELEMENT, TYPE=S4R, ELSET=EB6
       1,      31,      30,       1,       3
       2,      32,      29,      30,      31
       3,      32,      31,       3,       2
       4,      29,      32,      33,      28
       5,      32,       2,       5,      33
       6,      15,      23,      34,      22
       7,      23,      24,      35,      34
       8,      24,      25,      36,      35
       9,      25,      26,      37,      36
      10,      26,      27,      38,      37
      11,      27,      28,      33,      38
      12,      11,      16,      39,      12
      13,      16,      17,      40,      39
      14,      17,      18,      41,      40
      15,      18,      19,      42,      41
      16,      19,      20,      43,      42
      17,      20,      21,      44,      43
      18,      21,      22,      34,      44
      19,       4,      14,      45,      10
      20,      14,      13,      46,      45
** ... 20 like lines cut
*ELEMENT, TYPE=S4R, ELSET=EB7
      41,      87,      66,      65,      68
      42,      88,      58,      66,      87
      43,      88,      87,      68,      69
      44,      58,      88,      89,      64
      45,      88,      69,      70,      89
      46,      70,      71,     105,      89
      47,      71,      72,      90,     105
      48,      72,      73,      91,      90
      49,      73,      74,      92,      91
      50,      74,      75,      93,      92
      51,      75,      67,      77,      93
      52,      77,      78,      94,      93
      53,      78,      79,      95,      94
      54,      79,      80,      96,      95
      55,      80,      81,      97,      96
      56,      81,      82,      98,      97
      57,      82,      83,      99,      98
      58,      83,      76,      86,      99
      59,      86,      85,     100,      99
      60,      85,      84,     101,     100
** ... 18 like lines cut
*ELEMENT, TYPE=S4R, ELSET=EB9
      79,     131,     112,       1,      30
      80,     132,     111,     112,     131
      81,     132,     131,      30,      29
      82,     111,     132,     133,     125
      83,     132,      29,      28,     133
      84,      28,      27,     149,     133
      85,      27,      26,     134,     149
      86,      26,      25,     135,     134
      87,      25,      24,     136,     135
      88,      24,      23,     137,     136
      89,      23,      15,     120,     137
      90,     120,     119,     138,     137
      91,     119,     118,     139,     138
      92,     118,     117,     140,     139
      93,     117,     116,     141,     140
      94,     116,     115,     142,     141
      95,     115,     114,     143,     142
      96,     114,     113,     122,     143
      97,     122,     123,     144,     143
      98,     123,     124,     145,     144
** ... 18 like lines cut
*ELEMENT, TYPE=S4R, ELSET=EB10
     117,     175,      68,      65,     174
     118,     176,      69,      68,     175
     119,     176,     175,     174,     156
     120,      69,     176,     177,      70
     121,     176,     156,     162,     177
     122,      67,      75,     178,     167
     123,      75,      74,     179,     178
     124,      74,      73,     180,     179
     125,      73,      72,     181,     180
     126,      72,      71,     182,     181
     127,      71,      70,     177,     182
     128,     163,     173,     183,     166
     129,     173,     172,     184,     183
     130,     172,     171,     185,     184
     131,     171,     170,     186,     185
     132,     170,     169,     187,     186
     133,     169,     168,     188,     187
     134,     168,     167,     178,     188
     135,     155,     164,     189,     157
     136,     164,     165,     190,     189
** ... 20 like lines cut
*ELEMENT, TYPE=S4R, ELSET=EB11
     157,      11,      12,     269,     268
     158,      12,      13,     270,     269
     159,      13,      14,     271,     270
     160,      14,       4,     272,     271
     161,       4,     201,     273,     272
     162,     201,     202,     274,     273
     163,     202,     203,     275,     274
     164,     203,     204,     276,     275
     165,     204,     205,     277,     276
     166,     205,     206,     278,     277
     167,     206,     207,     279,     278
     168,     207,     208,     280,     279
     169,     208,     209,     281,     280
     170,     209,     210,     282,     281
     171,     210,     211,     283,     282
     172,     211,     212,     284,     283
     173,     212,     213,     285,     284
     174,     213,     214,     286,     285
     175,     214,      57,     287,     286
     176,      57,      84,     288,     287
** ... 348 like lines cut
*ELEMENT, TYPE=S4R, ELSET=EB12
     525,     624,     623,     599,     601
     526,     625,     622,     623,     624
     527,     625,     624,     601,     600
     528,     622,     625,     626,     621
     529,     625,     600,     602,     626
     530,     608,     616,     627,     615
     531,     616,     617,     628,     627
     532,     617,     618,     629,     628
     533,     618,     619,     630,     629
     534,     619,     620,     631,     630
     535,     620,     621,     626,     631
     536,     113,     609,     632,     122
     537,     609,     610,     633,     632
     538,     610,     611,     634,     633
     539,     611,     612,     635,     634
     540,     612,     613,     636,     635
     541,     613,     614,     637,     636
     542,     614,     615,     627,     637
     543,     121,     124,     638,     607
     544,     124,     123,     639,     638
** ... 20 like lines cut
*ELEMENT, TYPE=S4R, ELSET=EB14
     565,     675,     658,     657,     660
     566,     676,     650,     658,     675
     567,     676,     675,     660,     661
     568,     650,     676,     677,     656
     569,     676,     661,     662,     677
     570,     662,     663,     693,     677
     571,     663,     664,     678,     693
     572,     664,     665,     679,     678
     573,     665,     666,     680,     679
     574,     666,     667,     681,     680
     575,     667,     659,     668,     681
     576,     668,     669,     682,     681
     577,     669,     670,     683,     682
     578,     670,     671,     684,     683
     579,     671,     672,     685,     684
     580,     672,     673,     686,     685
     581,     673,     674,     687,     686
     582,     674,     163,     166,     687
     583,     166,     165,     688,     687
     584,     165,     164,     689,     688
** ... 18 like lines cut
*ELEMENT, TYPE=S4R, ELSET=EB15
     603,     719,     660,     657,     718
     604,     720,     661,     660,     719
     605,     720,     719,     718,     700
     606,     661,     720,     721,     662
     607,     720,     700,     706,     721
     608,     659,     667,     722,     711
     609,     667,     666,     723,     722
     610,     666,     665,     724,     723
     611,     665,     664,     725,     724
     612,     664,     663,     726,     725
     613,     663,     662,     721,     726
     614,     707,     717,     727,     710
     615,     717,     716,     728,     727
     616,     716,     715,     729,     728
     617,     715,     714,     730,     729
     618,     714,     713,     731,     730
     619,     713,     712,     732,     731
     620,     712,     711,     722,     732
     621,     699,     708,     733,     701
     622,     708,     709,     734,     733
** ... 20 like lines cut
*ELEMENT, TYPE=S4R, ELSET=EB17
     643,     765,     746,     599,     623
     644,     766,     745,     746,     765
     645,     766,     765,     623,     622
     646,     745,     766,     767,     759
     647,     766,     622,     621,     767
     648,     621,     620,     783,     767
     649,     620,     619,     768,     783
     650,     619,     618,     769,     768
     651,     618,     617,     770,     769
     652,     617,     616,     771,     770
     653,     616,     608,     754,     771
     654,     754,     753,     772,     771
     655,     753,     752,     773,     772
     656,     752,     751,     774,     773
     657,     751,     750,     775,     774
     658,     750,     749,     776,     775
     659,     749,     748,     777,     776
     660,     748,     747,     756,     777
     661,     756,     757,     778,     777
     662,     757,     758,     779,     778
** ... 18 like lines cut
*ELEMENT, TYPE=S4R, ELSET=EB18
     681,     814,     813,     789,     791
     682,     815,     812,     813,     814
     683,     815,     814,     791,     790
     684,     812,     815,     816,     811
     685,     815,     790,     792,     816
     686,     798,     806,     817,     805
     687,     806,     807,     818,     817
     688,     807,     808,     819,     818
     689,     808,     809,     820,     819
     690,     809,     810,     821,     820
     691,     810,     811,     816,     821
     692,     747,     799,     822,     756
     693,     799,     800,     823,     822
     694,     800,     801,     824,     823
     695,     801,     802,     825,     824
     696,     802,     803,     826,     825
     697,     803,     804,     827,     826
     698,     804,     805,     817,     827
     699,     755,     758,     828,     797
     700,     758,     757,     829,     828
** ... 20 like lines cut
*ELEMENT, TYPE=S4R, ELSET=EB20
     721,     865,     848,     847,     850
     722,     866,     840,     848,     865
     723,     866,     865,     850,     851
     724,     840,     866,     867,     846
     725,     866,     851,     852,     867
     726,     852,     853,     883,     867
     727,     853,     854,     868,     883
     728,     854,     855,     869,     868
     729,     855,     856,     870,     869
     730,     856,     857,     871,     870
     731,     857,     849,     858,     871
     732,     858,     859,     872,     871
     733,     859,     860,     873,     872
     734,     860,     861,     874,     873
     735,     861,     862,     875,     874
     736,     862,     863,     876,     875
     737,     863,     864,     877,     876
     738,     864,     707,     710,     877
     739,     710,     709,     878,     877
     740,     709,     708,     879,     878
** ... 18 like lines cut
*ELEMENT, TYPE=S4R, ELSET=EB21
     759,     909,     850,     847,     908
     760,     910,     851,     850,     909
     761,     910,     909,     908,     890
     762,     851,     910,     911,     852
     763,     910,     890,     896,     911
     764,     849,     857,     912,     901
     765,     857,     856,     913,     912
     766,     856,     855,     914,     913
     767,     855,     854,     915,     914
     768,     854,     853,     916,     915
     769,     853,     852,     911,     916
    6891,     889,    5509,    6517,     891
     771,     907,     906,     918,     917
     772,     906,     905,     919,     918
     773,     905,     904,     920,     919
     774,     904,     903,     921,     920
     775,     903,     902,     922,     921
     776,     902,     901,     912,     922
    6889,     898,    6515,    6517,    5509
    6888,     923,    6515,    6516,     924
** ... 28 like lines cut
*ELEMENT, TYPE=S4R, ELSET=EB23
     799,     955,     936,     789,     813
     800,     956,     935,     936,     955
     801,     956,     955,     813,     812
     802,     935,     956,     957,     949
     803,     956,     812,     811,     957
     804,     811,     810,     973,     957
     805,     810,     809,     958,     973
     806,     809,     808,     959,     958
     807,     808,     807,     960,     959
     808,     807,     806,     961,     960
     809,     806,     798,     944,     961
     810,     944,     943,     962,     961
     811,     943,     942,     963,     962
     812,     942,     941,     964,     963
     813,     941,     940,     965,     964
     814,     940,     939,     966,     965
     815,     939,     938,     967,     966
    7060,     938,    6602,    6603,     967
    7059,     946,     967,    6603,    5677
    7058,     937,    5677,    6603,    6602
** ... 26 like lines cut
*ELEMENT, TYPE=S4R, ELSET=EB24
    5854,    1017,    4348,    5884,    5706
    5853,    1016,    5706,    5884,    5708
    5863,    1029,    5888,    5889,    5887
    5862,    1021,    5887,    5889,    5482
    5861,    1020,    5482,    5889,    4933
    5860,    1022,    4974,    5886,    5885
    6330,     999,    6196,    6197,    4431
    6329,     998,    4431,    6197,    4720
    5783,     979,    5845,    5846,    5844
    5781,    1004,    5843,    5846,    5660
    5859,    1026,    5885,    5886,    4937
    5858,    1019,    4937,    5886,    4580
    5857,    1018,    4580,    5886,    4974
    6333,     994,    6198,    6199,    5705
    6332,    1009,    4720,    6197,    4355
    6331,    1010,    4355,    6197,    6196
    5856,    1028,    5708,    5884,    4575
    5782,    1003,    5844,    5846,    5843
    6337,     999,    4528,    6200,    6196
    6335,    1007,    4349,    6199,    5670
** ... 140 like lines cut
*ELEMENT, TYPE=S4R, ELSET=EB26
    6425,    1030,    6259,    6262,    6261
    5356,    1069,    5511,    5515,    5210
    5355,    1070,    5210,    5515,    4894
    5908,    1077,    4709,    5913,    5214
    5907,    1078,    5214,    5913,    4715
    5906,    1066,    4715,    5913,    4471
    5905,    1065,    4471,    5913,    4709
    6440,    1073,    6266,    6268,    4552
    6439,    1058,    4552,    6268,    4563
    6437,    1043,    5225,    6268,    6266
    6436,    1057,    6264,    6267,    4549
    6435,    1073,    4549,    6267,    6266
    6448,    1041,    6263,    6272,    5608
    6447,    1040,    5608,    6272,    4945
    6446,    1055,    4945,    6272,    6270
    6445,    1056,    6270,    6272,    6263
    6444,    1055,    6270,    6271,    4942
    6438,    1044,    4563,    6268,    5225
    5910,     899,    5915,    5916,    5914
    5909,     900,    5914,    5916,    4602
** ... 132 like lines cut
*ELEMENT, TYPE=S4R, ELSET=EB27
    5899,    1107,    5908,    5910,    5907
    6517,    1083,    6310,    6312,    5701
    6610,    1090,    5908,    6360,    6078
    6609,    1089,    6078,    6360,    6358
    6524,    1117,    6311,    6314,    4344
    6523,    1113,    4344,    6314,    5586
    6522,    1081,    5586,    6314,    6313
    6521,    1082,    6313,    6314,    6311
    6527,    1118,    4337,    6315,    4590
    6525,    1102,    5407,    6315,    5222
    5902,    1096,    5152,    5912,    5911
    5901,    1097,    5911,    5912,    5907
    5900,    1090,    5909,    5910,    5908
    6602,    1123,    4338,    6357,    5582
    6601,    1122,    5582,    6357,    5654
    6528,    1112,    5222,    6315,    4337
    6520,    1116,    5701,    6312,    5652
    6526,    1103,    4590,    6315,    5407
    6518,    1082,    6311,    6312,    6310
    5894,    1042,    4371,    5905,    5904
** ... 140 like lines cut
*ELEMENT, TYPE=S4R, ELSET=EB29
    6475,    1164,    6291,    6292,    6290
    6484,    1164,    6293,    6296,    6291
    6752,    1159,    5085,    6444,    6178
    6751,    1160,    6178,    6444,    6443
    6750,    1143,    6443,    6444,    6442
    6749,    1144,    6442,    6444,    5085
    6492,    1166,    6297,    6299,    6185
    6760,    1161,    6446,    6449,    6184
    6759,    1162,    6184,    6449,    4452
    6757,    1142,    6448,    6449,    6446
    6483,    1165,    6291,    6296,    6295
    6482,    1153,    6295,    6296,    5575
    6481,    1152,    5575,    6296,    6293
    6480,    1164,    6290,    6294,    6293
    6491,    1167,    6185,    6299,    5074
    6490,    1155,    5074,    6299,    4753
    6489,    1154,    4753,    6299,    6297
    6758,    1141,    4452,    6449,    6448
    6487,    1166,    4463,    6298,    6297
    6486,    1154,    6297,    6298,    5578
** ... 132 like lines cut
*ELEMENT, TYPE=S4R, ELSET=EB45
    7101,    1177,    6624,    6625,    5035
     994,    1173,    1172,    1190,    1189
     995,    1172,    1171,    1191,    1190
    7110,    1175,    5719,    6629,    6627
    7109,    1176,    5026,    6628,    1200
     998,    1189,    1190,    1193,    1192
     999,    1190,    1191,    1194,    1193
    7112,    1203,    6627,    6629,    1181
    7111,    1174,    1181,    6629,    5719
    1002,    1192,    1193,    1196,    1195
    1003,    1193,    1194,    1197,    1196
    7103,    1178,    5035,    6625,    1194
    7102,    1197,    1194,    6625,    6624
    1006,    1195,    1196,    1199,    1198
    1007,    1196,    1197,    1200,    1199
    7106,    1197,    6624,    6626,    1200
    7105,    1176,    1200,    6626,    5031
    1010,    1198,    1199,    1202,    1201
    1011,    1199,    1200,    1203,    1202
    7108,    1203,    1200,    6628,    6627
** ... 28 like lines cut
*ELEMENT, TYPE=S4R, ELSET=EB47
    7081,    1211,    1173,    6614,    6612
    1018,    1171,    1172,    1210,    1209
    1019,    1172,    1173,    1211,    1210
    7078,    1207,    1210,    6613,    5930
    7079,    1211,    6612,    6613,    1210
    7080,    1208,    6612,    6614,    6276
    7082,    1170,    6276,    6614,    1173
    7067,    1204,    5047,    6608,    6607
    7068,    1169,    1171,    6608,    5047
    7069,    1209,    6607,    6608,    1171
    7070,    1205,    5919,    6610,    5924
    7071,    1204,    6607,    6610,    5919
    7072,    1209,    6609,    6610,    6607
    7073,    1206,    5924,    6610,    6609
    7074,    1206,    6609,    6611,    5927
    7075,    1209,    1210,    6611,    6609
    7076,    1207,    5927,    6611,    1210
    7077,    1208,    5930,    6613,    6612
*ELEMENT, TYPE=S4R, ELSET=EB49
    6875,    1241,    1244,    6509,    6507
    1025,    1216,    1215,    1233,    1232
    1026,    1215,    1214,    1234,    1233
    6873,    1241,    6507,    6508,    1238
    6874,    1230,    6507,    6509,    5823
    1029,    1232,    1233,    1236,    1235
    1030,    1233,    1234,    1237,    1236
    6871,    1230,    5976,    6508,    6507
    6870,    1229,    5967,    6506,    1238
    1033,    1235,    1236,    1239,    1238
    1034,    1236,    1237,    1240,    1239
    6879,    1226,    6510,    6511,    1244
    6878,    1231,    1244,    6511,    4503
    1037,    1238,    1239,    1242,    1241
    1038,    1239,    1240,    1243,    1242
    6877,    1223,    4503,    6511,    6510
    6876,    1231,    5823,    6509,    1244
    1041,    1241,    1242,    1245,    1244
    1042,    1242,    1243,    1246,    1245
    6869,    1235,    1238,    6506,    6504
** ... 28 like lines cut
*ELEMENT, TYPE=S4R, ELSET=EB51
    6861,    1216,    6501,    6502,    1289
    1073,    1214,    1215,    1288,    1287
    1074,    1215,    1216,    1289,    1288
    6860,    1286,    1289,    6502,    4816
    6858,    1286,    4812,    6500,    1289
    6857,    1288,    1289,    6500,    6498
    6859,    1213,    4816,    6502,    6501
    6829,    1212,    6486,    6487,    4871
    6830,    1214,    1287,    6487,    6486
    6831,    1282,    4871,    6487,    1287
    6850,    1283,    4875,    6497,    6397
    6851,    1282,    1287,    6497,    4875
    6852,    1284,    6397,    6497,    1287
    6853,    1285,    6402,    6499,    6498
    6854,    1284,    1287,    6499,    6402
    6855,    1288,    6498,    6499,    1287
    6856,    1285,    6498,    6500,    4812
*ELEMENT, TYPE=S4R, ELSET=EB53
    7436,    1258,    5724,    6794,    6793
    1049,    1251,    1250,    1268,    1267
    1050,    1250,    1249,    1269,    1268
    7437,    1266,    1279,    6794,    5724
    7438,    1261,    6793,    6794,    1279
    1053,    1267,    1268,    1271,    1270
    1054,    1268,    1269,    1272,    1271
    7441,    1255,    4310,    6796,    1275
    7440,    1278,    1275,    6796,    6795
    1057,    1270,    1271,    1274,    1273
    1058,    1271,    1272,    1275,    1274
    7447,    1253,    4506,    6799,    1281
    7446,    1259,    1281,    6799,    6798
    1061,    1273,    1274,    1277,    1276
    1062,    1274,    1275,    1278,    1277
    7443,    1253,    1281,    6797,    4305
    7442,    1254,    4305,    6797,    6795
    1065,    1276,    1277,    1280,    1279
    1066,    1277,    1278,    1281,    1280
    7445,    1252,    6798,    6799,    4506
** ... 28 like lines cut
*ELEMENT, TYPE=S4R, ELSET=EB55
    7419,    1294,    1297,    6785,    5281
    1080,    1249,    1250,    1296,    1295
    1081,    1250,    1251,    1297,    1296
    7418,    1248,    5281,    6785,    6784
    7420,    1251,    6784,    6785,    1297
    7417,    1294,    5819,    6783,    1297
    7416,    1296,    1297,    6783,    6781
    7406,    1247,    6777,    6779,    5357
    7407,    1249,    1295,    6779,    6777
    7408,    1290,    5357,    6779,    1295
    7409,    1291,    5360,    6780,    6465
    7410,    1290,    1295,    6780,    5360
    7411,    1292,    6465,    6780,    1295
    7412,    1293,    5814,    6782,    6781
    7413,    1292,    1295,    6782,    5814
    7414,    1296,    6781,    6782,    1295
    7415,    1293,    6781,    6783,    5819
*ELEMENT, TYPE=S4R, ELSET=EB57
    7497,    1304,    5735,    6825,    6823
    1087,    1302,    1301,    1319,    1318
    1088,    1301,    1300,    1320,    1319
    7488,    1317,    4296,    6821,    6820
    7489,    1316,    1327,    6821,    4296
    1091,    1318,    1319,    1322,    1321
    1092,    1319,    1320,    1323,    1322
    7492,    1330,    1312,    6822,    6820
    7491,    1317,    6820,    6822,    6363
    1095,    1321,    1322,    1325,    1324
    1096,    1322,    1323,    1326,    1325
    7496,    1305,    6039,    6824,    1329
    7495,    1332,    1329,    6824,    6823
    1099,    1324,    1325,    1328,    1327
    1100,    1325,    1326,    1329,    1328
    7499,    1332,    6823,    6825,    1310
    7498,    1303,    1310,    6825,    5735
    1103,    1327,    1328,    1331,    1330
    1104,    1328,    1329,    1332,    1331
    7494,    1304,    6823,    6824,    6039
** ... 28 like lines cut
*ELEMENT, TYPE=S4R, ELSET=EB59
    7475,    1299,    5768,    6813,    1302
    1159,    1300,    1301,    1409,    1408
    1160,    1301,    1302,    1410,    1409
    7472,    1410,    6811,    6812,    1409
    7473,    1407,    6811,    6813,    5768
    7471,    1406,    1409,    6812,    5761
    7474,    1410,    1302,    6813,    6811
    7460,    1403,    4952,    6807,    6806
    7461,    1298,    1300,    6807,    4952
    7462,    1408,    6806,    6807,    1300
    7463,    1404,    4956,    6809,    4964
    7464,    1403,    6806,    6809,    4956
    7465,    1408,    6808,    6809,    6806
    7466,    1405,    4964,    6809,    6808
    7467,    1405,    6808,    6810,    5757
    7468,    1408,    1409,    6810,    6808
    7469,    1406,    5757,    6810,    1409
    7470,    1407,    5761,    6812,    6811
*ELEMENT, TYPE=S4R, ELSET=EB61
    7394,    1339,    5727,    6773,    6771
    1111,    1337,    1336,    1354,    1353
    1112,    1336,    1335,    1355,    1354
    7387,    1342,    6072,    6769,    1358
    7386,    1361,    1358,    6769,    6768
    1115,    1353,    1354,    1357,    1356
    1116,    1354,    1355,    1358,    1357
    7396,    1367,    6771,    6773,    1345
    7395,    1338,    1345,    6773,    5727
    1119,    1356,    1357,    1360,    1359
    1120,    1357,    1358,    1361,    1360
    7393,    1340,    6036,    6772,    1364
    7392,    1367,    1364,    6772,    6771
    1123,    1359,    1360,    1363,    1362
    1124,    1360,    1361,    1364,    1363
    7389,    1340,    1364,    6770,    6066
    7388,    1341,    6066,    6770,    6768
    1127,    1362,    1363,    1366,    1365
    1128,    1363,    1364,    1367,    1366
    7391,    1339,    6771,    6772,    6036
** ... 28 like lines cut
*ELEMENT, TYPE=S4R, ELSET=EB63
    7366,    1334,    5492,    6758,    1337
    1166,    1335,    1336,    1417,    1416
    1167,    1336,    1337,    1418,    1417
    7364,    1415,    6756,    6758,    5492
    7365,    1418,    1337,    6758,    6756
    7362,    1414,    1417,    6757,    5488
    7363,    1418,    6756,    6757,    1417
    7351,    1411,    4863,    6752,    6751
    7352,    1333,    1335,    6752,    4863
    7353,    1416,    6751,    6752,    1335
    7354,    1412,    4867,    6754,    5232
    7355,    1411,    6751,    6754,    4867
    7356,    1416,    6753,    6754,    6751
    7357,    1413,    5232,    6754,    6753
    7358,    1413,    6753,    6755,    5236
    7359,    1416,    1417,    6755,    6753
    7360,    1414,    5236,    6755,    1417
    7361,    1415,    5488,    6757,    6756
*ELEMENT, TYPE=S4R, ELSET=EB65
    7154,    1393,    6648,    6650,    1396
    1135,    1372,    1371,    1389,    1388
    1136,    1371,    1370,    1390,    1389
    7153,    1376,    1396,    6650,    5168
    7152,    1377,    5168,    6650,    6648
    1139,    1388,    1389,    1392,    1391
    1140,    1389,    1390,    1393,    1392
    7163,    1374,    4777,    6655,    1402
    7157,    1376,    5164,    6652,    1396
    1143,    1391,    1392,    1395,    1394
    1144,    1392,    1393,    1396,    1395
    7156,    1399,    1396,    6652,    6651
    7160,    1399,    6651,    6653,    1402
    1147,    1394,    1395,    1398,    1397
    1148,    1395,    1396,    1399,    1398
    7159,    1374,    1402,    6653,    5161
    7158,    1375,    5161,    6653,    6651
    1151,    1397,    1398,    1401,    1400
    1152,    1398,    1399,    1402,    1401
    7155,    1375,    6651,    6652,    5164
** ... 28 like lines cut
*ELEMENT, TYPE=S4R, ELSET=EB67
    7141,    1419,    1424,    6644,    6223
    1173,    1370,    1371,    1425,    1424
    1174,    1371,    1372,    1426,    1425
    7145,    1419,    5180,    6646,    1424
    7144,    1370,    1424,    6646,    6645
    7143,    1368,    6645,    6646,    5180
    7142,    1421,    6228,    6644,    1424
    7113,    1369,    5268,    6631,    6630
    7114,    1423,    1426,    6631,    5268
    7115,    1372,    6630,    6631,    1426
    7134,    1422,    6641,    6642,    6234
    7135,    1425,    1426,    6642,    6641
    7136,    1423,    6234,    6642,    1426
    7137,    1422,    6231,    6643,    6641
    7138,    1421,    1424,    6643,    6231
    7139,    1425,    6641,    6643,    1424
    7140,    1420,    6223,    6644,    6228
*ELEMENT, TYPE=S4R, ELSET=EB68
    6227,    1624,    5122,    6132,    6131
    6226,    1612,    6131,    6132,    5626
    6225,    1611,    5626,    6132,    5860
    6224,    1711,    6128,    6130,    5312
    6223,    1710,    5312,    6130,    5186
    6458,    1184,    6280,    6281,    6279
    6457,    1170,    6279,    6281,    6277
    6456,    1524,    6273,    6278,    4873
    6455,    1525,    4873,    6278,    6277
    6453,    1208,    6276,    6278,    6273
    6451,    1523,    6274,    6275,    4877
    6450,    1524,    4877,    6275,    6273
    6791,    1535,    4745,    6469,    6468
    6790,    1460,    6468,    6469,    6467
    6789,    1455,    6467,    6469,    6456
    6788,    1586,    5364,    6466,    5834
    6787,    1587,    5834,    6466,    5817
    6454,    1170,    6277,    6278,    6276
    6785,    1291,    6465,    6466,    5364
    6452,    1522,    5931,    6275,    6274
** ... 1472 like lines cut
*ELEMENT, TYPE=S4R, ELSET=EB70
    6044,    1814,    5775,    6012,    4281
    6024,    1810,    5997,    6001,    5774
    6578,    1800,    4277,    6342,    4926
    6577,    1799,    4926,    6342,    5781
    6039,    1813,    4276,    6010,    6004
    6038,    1809,    6004,    6010,    5332
    6299,    1790,    5533,    6175,    4404
    6298,    1789,    4404,    6175,    4693
    6297,    1792,    4693,    6175,    4688
    6036,    1812,    6008,    6009,    6007
    6035,    1816,    6007,    6009,    6006
    6576,    1812,    6339,    6341,    6008
    6575,    1807,    6008,    6341,    5323
    6574,    1798,    5323,    6341,    5896
    6034,    1808,    6006,    6009,    5328
    6033,    1807,    5328,    6009,    6008
    6573,    1797,    5896,    6341,    6339
    6037,    1808,    5332,    6010,    6006
    6571,    1812,    6011,    6340,    6339
    6042,    1812,    6007,    6012,    6011
** ... 140 like lines cut
*ELEMENT, TYPE=S4R, ELSET=EB71
    6705,    1852,    6192,    6418,    4826
    6710,    1476,    6419,    6420,    5806
    6709,    1477,    5806,    6420,    5688
    6708,    1864,    4826,    6418,    4839
    6707,    1865,    4839,    6418,    4832
    6706,    1853,    4832,    6418,    6192
    6328,    1853,    6191,    6195,    4829
    6327,    1854,    4829,    6195,    5689
    6326,    1841,    5689,    6195,    6194
    6324,    1852,    6188,    6193,    6192
    6322,    1840,    6191,    6193,    6190
    6321,    1839,    6190,    6193,    6188
    6320,    1851,    5755,    6189,    4825
    6319,    1852,    4825,    6189,    6188
    6318,    1839,    6188,    6189,    6187
    6317,    1838,    6187,    6189,    5755
    5664,    1850,    5752,    5756,    4820
    6325,    1840,    6194,    6195,    6191
    5662,    1838,    5755,    5756,    5754
    5661,    1837,    5754,    5756,    5752
** ... 132 like lines cut
*ELEMENT, TYPE=S4R, ELSET=EB73
    6743,    1906,    4325,    6440,    6439
    6655,    1895,    4323,    6390,    5435
    6737,    1904,    4421,    6438,    6433
    6736,    1904,    6432,    6436,    4417
    6735,    1888,    4417,    6436,    4409
    6734,    1880,    4409,    6436,    6435
    6733,    1881,    6435,    6436,    6432
    6732,    1903,    6429,    6434,    6433
    6731,    1904,    6433,    6434,    6432
    6653,    1873,    6389,    6390,    6387
    6652,    1893,    6384,    6388,    4319
    6651,    1894,    4319,    6388,    6387
    6650,    1873,    6387,    6388,    6386
    6649,    1874,    6386,    6388,    6384
    6730,    1881,    6432,    6434,    6431
    6729,    1882,    6431,    6434,    6429
    6728,    1902,    4400,    6430,    6111
    6654,    1872,    5435,    6390,    6389
    6742,    1890,    6439,    6440,    4425
    6741,    1889,    4425,    6440,    6437
** ... 132 like lines cut
*ELEMENT, TYPE=S4R, ELSET=EB74
    6692,    1950,    5953,    6410,    6093
    6686,    1919,    6407,    6409,    6406
    6685,    1910,    6406,    6409,    6408
    6684,    1953,    6105,    6405,    6404
    6683,    1954,    6404,    6405,    5936
    6682,    1942,    5936,    6405,    5144
    6699,    1938,    6101,    6415,    5394
    6698,    1921,    5394,    6415,    6414
    6697,    1920,    6414,    6415,    6412
    6695,    1945,    5938,    6413,    6412
    6694,    1920,    6412,    6413,    6411
    6693,    1919,    6411,    6413,    6407
    6704,    1932,    5987,    6417,    5391
    6703,    1937,    5391,    6417,    6345
    6702,    1916,    6345,    6417,    6416
    6701,    1917,    6416,    6417,    5987
    6700,    1945,    6412,    6415,    6101
    6696,    1944,    6407,    6413,    5938
    6589,    1914,    6350,    6352,    6348
    6587,    1947,    5943,    6349,    6348
** ... 140 like lines cut
*ELEMENT, TYPE=S4R, ELSET=EB76
    1708,    1981,    1980,    1956,    1958
    1709,    1982,    1979,    1980,    1981
    1710,    1982,    1981,    1958,    1957
    1711,    1979,    1982,    1983,    1978
    1712,    1982,    1957,    1959,    1983
    1713,    1965,    1973,    1984,    1972
    1714,    1973,    1974,    1985,    1984
    1715,    1974,    1975,    1986,    1985
    1716,    1975,    1976,    1987,    1986
    1717,    1976,    1977,    1988,    1987
    1718,    1977,    1978,    1983,    1988
    7341,    1996,    6743,    6745,    1989
    1720,    1966,    1967,    1990,    1989
    1721,    1967,    1968,    1991,    1990
    1722,    1968,    1969,    1992,    1991
    1723,    1969,    1970,    1993,    1992
    1724,    1970,    1971,    1994,    1993
    1725,    1971,    1972,    1984,    1994
    7344,    1877,    6376,    6747,    1989
    7343,    1966,    1989,    6747,    6746
** ... 28 like lines cut
*ELEMENT, TYPE=S4R, ELSET=EB77
    1748,    2032,    2015,    2014,    2017
    1749,    2033,    2007,    2015,    2032
    1750,    2033,    2032,    2017,    2018
    1751,    2007,    2033,    2034,    2013
    1752,    2033,    2018,    2019,    2034
    1753,    2019,    2020,    2050,    2034
    1754,    2020,    2021,    2035,    2050
    1755,    2021,    2022,    2036,    2035
    1756,    2022,    2023,    2037,    2036
    1757,    2023,    2024,    2038,    2037
    1758,    2024,    2016,    2025,    2038
    1759,    2025,    2026,    2039,    2038
    1760,    2026,    2027,    2040,    2039
    1761,    2027,    2028,    2041,    2040
    1762,    2028,    2029,    2042,    2041
    1763,    2029,    2030,    2043,    2042
    1764,    2030,    2031,    2044,    2043
    7175,    2046,    6659,    6661,    2008
    7174,    1910,    2008,    6661,    6406
    7173,    1919,    6406,    6661,    6659
** ... 26 like lines cut
*ELEMENT, TYPE=S4R, ELSET=EB79
    1786,    2076,    2057,    1956,    1980
    1787,    2077,    2056,    2057,    2076
    1788,    2077,    2076,    1980,    1979
    1789,    2056,    2077,    2078,    2070
    1790,    2077,    1979,    1978,    2078
    1791,    1978,    1977,    2094,    2078
    1792,    1977,    1976,    2079,    2094
    1793,    1976,    1975,    2080,    2079
    1794,    1975,    1974,    2081,    2080
    1795,    1974,    1973,    2082,    2081
    1796,    1973,    1965,    2065,    2082
    1797,    2065,    2064,    2083,    2082
    1798,    2064,    2063,    2084,    2083
    1799,    2063,    2062,    2085,    2084
    1800,    2062,    2061,    2086,    2085
    1801,    2061,    2060,    2087,    2086
    1802,    2060,    2059,    2088,    2087
    1803,    2059,    2058,    2067,    2088
    1804,    2067,    2068,    2089,    2088
    1805,    2068,    2069,    2090,    2089
** ... 18 like lines cut
*ELEMENT, TYPE=S4R, ELSET=EB80
    1824,    2120,    2017,    2014,    2119
    1825,    2121,    2018,    2017,    2120
    1826,    2121,    2120,    2119,    2101
    1827,    2018,    2121,    2122,    2019
    1828,    2121,    2101,    2107,    2122
    1829,    2016,    2024,    2123,    2112
    1830,    2024,    2023,    2124,    2123
    1831,    2023,    2022,    2125,    2124
    1832,    2022,    2021,    2126,    2125
    1833,    2021,    2020,    2127,    2126
    1834,    2020,    2019,    2122,    2127
    1835,    2108,    2118,    2128,    2111
    1836,    2118,    2117,    2129,    2128
    1837,    2117,    2116,    2130,    2129
    1838,    2116,    2115,    2131,    2130
    1839,    2115,    2114,    2132,    2131
    1840,    2114,    2113,    2133,    2132
    1841,    2113,    2112,    2123,    2133
    1842,    2100,    2109,    2134,    2102
    1843,    2109,    2110,    2135,    2134
** ... 20 like lines cut
*ELEMENT, TYPE=S4R, ELSET=EB82
    1864,    2171,    2170,    2146,    2148
    1865,    2172,    2169,    2170,    2171
    1866,    2172,    2171,    2148,    2147
    1867,    2169,    2172,    2173,    2168
    1868,    2172,    2147,    2149,    2173
    1869,    2155,    2163,    2174,    2162
    1870,    2163,    2164,    2175,    2174
    1871,    2164,    2165,    2176,    2175
    1872,    2165,    2166,    2177,    2176
    1873,    2166,    2167,    2178,    2177
    1874,    2167,    2168,    2173,    2178
    1875,    2058,    2156,    2179,    2067
    1876,    2156,    2157,    2180,    2179
    1877,    2157,    2158,    2181,    2180
    1878,    2158,    2159,    2182,    2181
    1879,    2159,    2160,    2183,    2182
    1880,    2160,    2161,    2184,    2183
    1881,    2161,    2162,    2174,    2184
    1882,    2066,    2069,    2185,    2154
    1883,    2069,    2068,    2186,    2185
** ... 20 like lines cut
*ELEMENT, TYPE=S4R, ELSET=EB83
    1904,    2222,    2205,    2204,    2207
    1905,    2223,    2197,    2205,    2222
    1906,    2223,    2222,    2207,    2208
    1907,    2197,    2223,    2224,    2203
    1908,    2223,    2208,    2209,    2224
    1909,    2209,    2210,    2240,    2224
    1910,    2210,    2211,    2225,    2240
    1911,    2211,    2212,    2226,    2225
    1912,    2212,    2213,    2227,    2226
    1913,    2213,    2214,    2228,    2227
    1914,    2214,    2206,    2215,    2228
    1915,    2215,    2216,    2229,    2228
    1916,    2216,    2217,    2230,    2229
    1917,    2217,    2218,    2231,    2230
    1918,    2218,    2219,    2232,    2231
    1919,    2219,    2220,    2233,    2232
    1920,    2220,    2221,    2234,    2233
    1921,    2221,    2108,    2111,    2234
    1922,    2111,    2110,    2235,    2234
    1923,    2110,    2109,    2236,    2235
** ... 18 like lines cut
*ELEMENT, TYPE=S4R, ELSET=EB85
    1942,    2266,    2247,    2146,    2170
    1943,    2267,    2246,    2247,    2266
    1944,    2267,    2266,    2170,    2169
    1945,    2246,    2267,    2268,    2260
    1946,    2267,    2169,    2168,    2268
    1947,    2168,    2167,    2284,    2268
    1948,    2167,    2166,    2269,    2284
    1949,    2166,    2165,    2270,    2269
    1950,    2165,    2164,    2271,    2270
    1951,    2164,    2163,    2272,    2271
    1952,    2163,    2155,    2255,    2272
    1953,    2255,    2254,    2273,    2272
    1954,    2254,    2253,    2274,    2273
    1955,    2253,    2252,    2275,    2274
    1956,    2252,    2251,    2276,    2275
    1957,    2251,    2250,    2277,    2276
    1958,    2250,    2249,    2278,    2277
    1959,    2249,    2248,    2257,    2278
    1960,    2257,    2258,    2279,    2278
    1961,    2258,    2259,    2280,    2279
** ... 18 like lines cut
*ELEMENT, TYPE=S4R, ELSET=EB86
    1980,    2310,    2207,    2204,    2309
    1981,    2311,    2208,    2207,    2310
    1982,    2311,    2310,    2309,    2291
    1983,    2208,    2311,    2312,    2209
    1984,    2311,    2291,    2297,    2312
    1985,    2206,    2214,    2313,    2302
    1986,    2214,    2213,    2314,    2313
    1987,    2213,    2212,    2315,    2314
    1988,    2212,    2211,    2316,    2315
    1989,    2211,    2210,    2317,    2316
    1990,    2210,    2209,    2312,    2317
    1991,    2298,    2308,    2318,    2301
    1992,    2308,    2307,    2319,    2318
    1993,    2307,    2306,    2320,    2319
    1994,    2306,    2305,    2321,    2320
    1995,    2305,    2304,    2322,    2321
    1996,    2304,    2303,    2323,    2322
    1997,    2303,    2302,    2313,    2323
    1998,    2290,    2299,    2324,    2292
    1999,    2299,    2300,    2325,    2324
** ... 20 like lines cut
*ELEMENT, TYPE=S4R, ELSET=EB87
    2020,    2336,    2338,    2390,    2389
    2021,    2338,    2339,    2391,    2390
    2022,    2339,    2340,    2392,    2391
    2023,    2340,    2341,    2393,    2392
    2024,    2341,    2342,    2394,    2393
    2025,    2342,    2343,    2395,    2394
    2026,    2343,    2344,    2396,    2395
    2027,    2344,    2345,    2397,    2396
    2028,    2345,    2346,    2398,    2397
    2029,    2346,    2347,    2399,    2398
    2030,    2347,    2348,    2400,    2399
    2031,    2348,    2349,    2401,    2400
    2032,    2349,    2350,    2402,    2401
    2033,    2350,    2351,    2403,    2402
    2034,    2351,    2352,    2404,    2403
    2035,    2352,    2353,    2405,    2404
    2036,    2353,    2354,    2406,    2405
    2037,    2354,    2355,    2407,    2406
    2038,    2355,    2356,    2408,    2407
    2039,    2356,    2357,    2409,    2408
** ... 187 like lines cut
*ELEMENT, TYPE=S4R, ELSET=EB96
    2227,    2590,      66,      58,    2579
    2228,    2591,      65,      66,    2590
    2229,    2591,    2590,    2579,    2578
    2230,    2592,    2589,      65,    2591
    2231,    2592,    2591,    2578,    2577
    2232,    2593,    2588,    2589,    2592
    2233,    2593,    2592,    2577,    2576
    2234,    2594,    2587,    2588,    2593
    2235,    2594,    2593,    2576,    2575
    2236,    2595,    2586,    2587,    2594
    2237,    2595,    2594,    2575,    2574
    2238,    2596,    2585,    2586,    2595
    2239,    2596,    2595,    2574,    2573
    2240,    2597,    2584,    2585,    2596
    2241,    2597,    2596,    2573,    2572
    2242,    2598,    2583,    2584,    2597
    2243,    2598,    2597,    2572,    2571
    2244,    2599,    2582,    2583,    2598
    2245,    2599,    2598,    2571,    2570
    2246,    2600,    2581,    2582,    2599
** ... 8 like lines cut
*ELEMENT, TYPE=S4R, ELSET=EB97
    2255,       2,    2566,    2604,       5
    2256,    2566,    2567,    2605,    2604
    2257,    2567,    2568,    2606,    2605
    2258,    2568,    2569,    2607,    2606
    2259,    2569,    2570,    2608,    2607
    2260,    2570,    2571,    2609,    2608
    2261,    2571,    2572,    2610,    2609
    2262,    2572,    2573,    2611,    2610
    2263,    2573,    2574,    2612,    2611
    2264,    2574,    2575,    2613,    2612
    2265,    2575,    2576,    2614,    2613
    2266,    2576,    2577,    2615,    2614
    2267,    2577,    2578,    2616,    2615
    2268,    2578,    2579,    2617,    2616
    2269,    2579,      58,      64,    2617
    2270,       5,    2604,    2618,       6
    2271,    2604,    2605,    2619,    2618
    2272,    2605,    2606,    2620,    2619
    2273,    2606,    2607,    2621,    2620
    2274,    2607,    2608,    2622,    2621
** ... 85 like lines cut
*ELEMENT, TYPE=S4R, ELSET=EB98
    2360,    2702,     112,     111,    2701
    2361,    2703,       1,     112,    2702
    2362,    2703,    2702,    2701,    2700
    2363,    2704,    2580,       1,    2703
    2364,    2704,    2703,    2700,    2699
    2365,    2705,    2581,    2580,    2704
    2366,    2705,    2704,    2699,    2698
    2367,    2706,    2582,    2581,    2705
    2368,    2706,    2705,    2698,    2697
    2369,    2707,    2583,    2582,    2706
    2370,    2707,    2706,    2697,    2696
    2371,    2708,    2584,    2583,    2707
    2372,    2708,    2707,    2696,    2695
    2373,    2709,    2585,    2584,    2708
    2374,    2709,    2708,    2695,    2694
    2375,    2710,    2586,    2585,    2709
    2376,    2710,    2709,    2694,    2693
    2377,    2711,    2587,    2586,    2710
    2378,    2711,    2710,    2693,    2692
    2379,    2712,    2588,    2587,    2711
** ... 8 like lines cut
*ELEMENT, TYPE=S4R, ELSET=EB99
    2388,     156,    2688,    2730,     162
    2389,    2688,    2689,    2731,    2730
    2390,    2689,    2690,    2732,    2731
    2391,    2690,    2691,    2733,    2732
    2392,    2691,    2692,    2734,    2733
    2393,    2692,    2693,    2735,    2734
    2394,    2693,    2694,    2736,    2735
    2395,    2694,    2695,    2737,    2736
    2396,    2695,    2696,    2738,    2737
    2397,    2696,    2697,    2739,    2738
    2398,    2697,    2698,    2740,    2739
    2399,    2698,    2699,    2741,    2740
    2400,    2699,    2700,    2742,    2741
    2401,    2700,    2701,    2743,    2742
    2402,    2701,     111,     125,    2743
    2403,     162,    2730,    2744,     161
    2404,    2730,    2731,    2745,    2744
    2405,    2731,    2732,    2746,    2745
    2406,    2732,    2733,    2747,    2746
    2407,    2733,    2734,    2748,    2747
** ... 85 like lines cut
*ELEMENT, TYPE=S4R, ELSET=EB100
    2493,    2838,     658,     650,    2827
    2494,    2839,     657,     658,    2838
    2495,    2839,    2838,    2827,    2826
    2496,    2840,    2837,     657,    2839
    2497,    2840,    2839,    2826,    2825
    2498,    2841,    2836,    2837,    2840
    2499,    2841,    2840,    2825,    2824
    2500,    2842,    2835,    2836,    2841
    2501,    2842,    2841,    2824,    2823
    2502,    2843,    2834,    2835,    2842
    2503,    2843,    2842,    2823,    2822
    2504,    2844,    2833,    2834,    2843
    2505,    2844,    2843,    2822,    2821
    2506,    2845,    2832,    2833,    2844
    2507,    2845,    2844,    2821,    2820
    2508,    2846,    2831,    2832,    2845
    2509,    2846,    2845,    2820,    2819
    2510,    2847,    2830,    2831,    2846
    2511,    2847,    2846,    2819,    2818
    2512,    2848,    2829,    2830,    2847
** ... 8 like lines cut
*ELEMENT, TYPE=S4R, ELSET=EB101
    2521,     600,    2814,    2852,     602
    2522,    2814,    2815,    2853,    2852
    2523,    2815,    2816,    2854,    2853
    2524,    2816,    2817,    2855,    2854
    2525,    2817,    2818,    2856,    2855
    2526,    2818,    2819,    2857,    2856
    2527,    2819,    2820,    2858,    2857
    2528,    2820,    2821,    2859,    2858
    2529,    2821,    2822,    2860,    2859
    2530,    2822,    2823,    2861,    2860
    2531,    2823,    2824,    2862,    2861
    2532,    2824,    2825,    2863,    2862
    2533,    2825,    2826,    2864,    2863
    2534,    2826,    2827,    2865,    2864
    2535,    2827,     650,     656,    2865
    2536,     602,    2852,    2866,     603
    2537,    2852,    2853,    2867,    2866
    2538,    2853,    2854,    2868,    2867
    2539,    2854,    2855,    2869,    2868
    2540,    2855,    2856,    2870,    2869
** ... 85 like lines cut
*ELEMENT, TYPE=S4R, ELSET=EB102
    2626,    2950,     746,     745,    2949
    2627,    2951,     599,     746,    2950
    2628,    2951,    2950,    2949,    2948
    2629,    2952,    2828,     599,    2951
    2630,    2952,    2951,    2948,    2947
    2631,    2953,    2829,    2828,    2952
    2632,    2953,    2952,    2947,    2946
    2633,    2954,    2830,    2829,    2953
    2634,    2954,    2953,    2946,    2945
    2635,    2955,    2831,    2830,    2954
    2636,    2955,    2954,    2945,    2944
    2637,    2956,    2832,    2831,    2955
    2638,    2956,    2955,    2944,    2943
    2639,    2957,    2833,    2832,    2956
    2640,    2957,    2956,    2943,    2942
    2641,    2958,    2834,    2833,    2957
    2642,    2958,    2957,    2942,    2941
    2643,    2959,    2835,    2834,    2958
    2644,    2959,    2958,    2941,    2940
    2645,    2960,    2836,    2835,    2959
** ... 8 like lines cut
*ELEMENT, TYPE=S4R, ELSET=EB103
    2654,     700,    2936,    2978,     706
    2655,    2936,    2937,    2979,    2978
    2656,    2937,    2938,    2980,    2979
    2657,    2938,    2939,    2981,    2980
    2658,    2939,    2940,    2982,    2981
    2659,    2940,    2941,    2983,    2982
    2660,    2941,    2942,    2984,    2983
    2661,    2942,    2943,    2985,    2984
    2662,    2943,    2944,    2986,    2985
    2663,    2944,    2945,    2987,    2986
    2664,    2945,    2946,    2988,    2987
    2665,    2946,    2947,    2989,    2988
    2666,    2947,    2948,    2990,    2989
    2667,    2948,    2949,    2991,    2990
    2668,    2949,     745,     759,    2991
    2669,     706,    2978,    2992,     705
    2670,    2978,    2979,    2993,    2992
    2671,    2979,    2980,    2994,    2993
    2672,    2980,    2981,    2995,    2994
    2673,    2981,    2982,    2996,    2995
** ... 85 like lines cut
*ELEMENT, TYPE=S4R, ELSET=EB104
    2759,    3086,     848,     840,    3075
    2760,    3087,     847,     848,    3086
    2761,    3087,    3086,    3075,    3074
    2762,    3088,    3085,     847,    3087
    2763,    3088,    3087,    3074,    3073
    2764,    3089,    3084,    3085,    3088
    2765,    3089,    3088,    3073,    3072
    2766,    3090,    3083,    3084,    3089
    2767,    3090,    3089,    3072,    3071
    2768,    3091,    3082,    3083,    3090
    2769,    3091,    3090,    3071,    3070
    2770,    3092,    3081,    3082,    3091
    2771,    3092,    3091,    3070,    3069
    2772,    3093,    3080,    3081,    3092
    2773,    3093,    3092,    3069,    3068
    2774,    3094,    3079,    3080,    3093
    2775,    3094,    3093,    3068,    3067
    2776,    3095,    3078,    3079,    3094
    2777,    3095,    3094,    3067,    3066
    2778,    3096,    3077,    3078,    3095
** ... 8 like lines cut
*ELEMENT, TYPE=S4R, ELSET=EB105
    2787,     790,    3062,    3100,     792
    2788,    3062,    3063,    3101,    3100
    2789,    3063,    3064,    3102,    3101
    2790,    3064,    3065,    3103,    3102
    2791,    3065,    3066,    3104,    3103
    2792,    3066,    3067,    3105,    3104
    2793,    3067,    3068,    3106,    3105
    2794,    3068,    3069,    3107,    3106
    2795,    3069,    3070,    3108,    3107
    2796,    3070,    3071,    3109,    3108
    2797,    3071,    3072,    3110,    3109
    2798,    3072,    3073,    3111,    3110
    2799,    3073,    3074,    3112,    3111
    2800,    3074,    3075,    3113,    3112
    2801,    3075,     840,     846,    3113
    2802,     792,    3100,    3114,     793
    2803,    3100,    3101,    3115,    3114
    2804,    3101,    3102,    3116,    3115
    2805,    3102,    3103,    3117,    3116
    2806,    3103,    3104,    3118,    3117
** ... 85 like lines cut
*ELEMENT, TYPE=S4R, ELSET=EB106
    2892,    3198,     936,     935,    3197
    2893,    3199,     789,     936,    3198
    2894,    3199,    3198,    3197,    3196
    2895,    3200,    3076,     789,    3199
    2896,    3200,    3199,    3196,    3195
    2897,    3201,    3077,    3076,    3200
    2898,    3201,    3200,    3195,    3194
    2899,    3202,    3078,    3077,    3201
    2900,    3202,    3201,    3194,    3193
    2901,    3203,    3079,    3078,    3202
    2902,    3203,    3202,    3193,    3192
    2903,    3204,    3080,    3079,    3203
    2904,    3204,    3203,    3192,    3191
    2905,    3205,    3081,    3080,    3204
    2906,    3205,    3204,    3191,    3190
    2907,    3206,    3082,    3081,    3205
    2908,    3206,    3205,    3190,    3189
    2909,    3207,    3083,    3082,    3206
    2910,    3207,    3206,    3189,    3188
    2911,    3208,    3084,    3083,    3207
** ... 8 like lines cut
*ELEMENT, TYPE=S4R, ELSET=EB107
    2920,     890,    3184,    3226,     896
    2921,    3184,    3185,    3227,    3226
    2922,    3185,    3186,    3228,    3227
    2923,    3186,    3187,    3229,    3228
    2924,    3187,    3188,    3230,    3229
    2925,    3188,    3189,    3231,    3230
    2926,    3189,    3190,    3232,    3231
    2927,    3190,    3191,    3233,    3232
    2928,    3191,    3192,    3234,    3233
    2929,    3192,    3193,    3235,    3234
    2930,    3193,    3194,    3236,    3235
    2931,    3194,    3195,    3237,    3236
    2932,    3195,    3196,    3238,    3237
    2933,    3196,    3197,    3239,    3238
    2934,    3197,     935,     949,    3239
    2935,     896,    3226,    3240,     895
    2936,    3226,    3227,    3241,    3240
    2937,    3227,    3228,    3242,    3241
    2938,    3228,    3229,    3243,    3242
    2939,    3229,    3230,    3244,    3243
** ... 87 like lines cut
*ELEMENT, TYPE=S4R, ELSET=EB108
    7024,     980,    5661,    6584,    3310
    7023,    3347,    3310,    6584,    6582
    3027,    3335,    3334,    3323,    3322
    7022,     981,    6582,    6584,    5661
    3029,    3336,    3335,    3322,    3321
    3030,    3337,    3332,    3333,    3336
    3031,    3337,    3336,    3321,    3320
    3032,    3338,    3331,    3332,    3337
    3033,    3338,    3337,    3320,    3319
    3034,    3339,    3330,    3331,    3338
    3035,    3339,    3338,    3319,    3318
    3036,    3340,    3329,    3330,    3339
    3037,    3340,    3339,    3318,    3317
    3038,    3341,    3328,    3329,    3340
    3039,    3341,    3340,    3317,    3316
    3040,    3342,    3327,    3328,    3341
    3041,    3342,    3341,    3316,    3315
    3042,    3343,    3326,    3327,    3342
    3043,    3343,    3342,    3315,    3314
    3044,    3344,    3325,    3326,    3343
** ... 18 like lines cut
*ELEMENT, TYPE=S4R, ELSET=EB109
    7032,     983,    3362,    6589,    5478
    3054,    3310,    3311,    3349,    3348
    3055,    3311,    3312,    3350,    3349
    3056,    3312,    3313,    3351,    3350
    3057,    3313,    3314,    3352,    3351
    3058,    3314,    3315,    3353,    3352
    3059,    3315,    3316,    3354,    3353
    3060,    3316,    3317,    3355,    3354
    3061,    3317,    3318,    3356,    3355
    3062,    3318,    3319,    3357,    3356
    3063,    3319,    3320,    3358,    3357
    3064,    3320,    3321,    3359,    3358
    3065,    3321,    3322,    3360,    3359
    3066,    3322,    3323,    3361,    3360
    7041,    3404,    3418,    6593,    6591
    7040,     986,    6591,    6593,    4973
    3069,    3348,    3349,    3363,    3362
    3070,    3349,    3350,    3364,    3363
    3071,    3350,    3351,    3365,    3364
    3072,    3351,    3352,    3366,    3365
** ... 113 like lines cut
*ELEMENT, TYPE=S4R, ELSET=EB110
    7015,    3446,    6579,    6580,    3445
    7014,    1125,    3445,    6580,    5397
    3160,    3447,    3446,    3445,    3444
    3161,    3448,    3324,     979,    3447
    3162,    3448,    3447,    3444,    3443
    3163,    3449,    3325,    3324,    3448
    3164,    3449,    3448,    3443,    3442
    3165,    3450,    3326,    3325,    3449
    3166,    3450,    3449,    3442,    3441
    3167,    3451,    3327,    3326,    3450
    3168,    3451,    3450,    3441,    3440
    3169,    3452,    3328,    3327,    3451
    3170,    3452,    3451,    3440,    3439
    3171,    3453,    3329,    3328,    3452
    3172,    3453,    3452,    3439,    3438
    3173,    3454,    3330,    3329,    3453
    3174,    3454,    3453,    3438,    3437
    3175,    3455,    3331,    3330,    3454
    3176,    3455,    3454,    3437,    3436
    3177,    3456,    3332,    3331,    3455
** ... 18 like lines cut
*ELEMENT, TYPE=S4R, ELSET=EB111
    6995,    1143,    6442,    6571,    6570
    3187,    3432,    3433,    3461,    3460
    3188,    3433,    3434,    3462,    3461
    3189,    3434,    3435,    3463,    3462
    3190,    3435,    3436,    3464,    3463
    3191,    3436,    3437,    3465,    3464
    3192,    3437,    3438,    3466,    3465
    3193,    3438,    3439,    3467,    3466
    3194,    3439,    3440,    3468,    3467
    3195,    3440,    3441,    3469,    3468
    3196,    3441,    3442,    3470,    3469
    3197,    3442,    3443,    3471,    3470
    3198,    3443,    3444,    3472,    3471
    3199,    3444,    3445,    3473,    3472
    6993,    1432,    3543,    6569,    6333
    6992,    1135,    6333,    6569,    5084
    3202,    3460,    3461,    3475,    3474
    3203,    3461,    3462,    3476,    3475
    3204,    3462,    3463,    3477,    3476
    3205,    3463,    3464,    3478,    3477
** ... 140 like lines cut
*ELEMENT, TYPE=S4R, ELSET=EB118
    7298,    3581,    3544,    6724,    6723
    7300,    1768,    5534,    6725,    6723
    3293,    3569,    3568,    3557,    3556
    7299,    1767,    4690,    6724,    3544
    3295,    3570,    3569,    3556,    3555
    3296,    3571,    3566,    3567,    3570
    3297,    3571,    3570,    3555,    3554
    3298,    3572,    3565,    3566,    3571
    3299,    3572,    3571,    3554,    3553
    3300,    3573,    3564,    3565,    3572
    3301,    3573,    3572,    3553,    3552
    3302,    3574,    3563,    3564,    3573
    3303,    3574,    3573,    3552,    3551
    3304,    3575,    3562,    3563,    3574
    3305,    3575,    3574,    3551,    3550
    3306,    3576,    3561,    3562,    3575
    3307,    3576,    3575,    3550,    3549
    3308,    3577,    3560,    3561,    3576
    3309,    3577,    3576,    3549,    3548
    3310,    3578,    3559,    3560,    3577
** ... 18 like lines cut
*ELEMENT, TYPE=S4R, ELSET=EB119
    7272,    1462,    6473,    6711,    3654
    3320,    3544,    3545,    3583,    3582
    3321,    3545,    3546,    3584,    3583
    3322,    3546,    3547,    3585,    3584
    3323,    3547,    3548,    3586,    3585
    3324,    3548,    3549,    3587,    3586
    3325,    3549,    3550,    3588,    3587
    3326,    3550,    3551,    3589,    3588
    3327,    3551,    3552,    3590,    3589
    3328,    3552,    3553,    3591,    3590
    3329,    3553,    3554,    3592,    3591
    3330,    3554,    3555,    3593,    3592
    3331,    3555,    3556,    3594,    3593
    3332,    3556,    3557,    3595,    3594
    7274,    1460,    3652,    6712,    6470
    7273,    1461,    6470,    6712,    6710
    3335,    3582,    3583,    3597,    3596
    3336,    3583,    3584,    3598,    3597
    3337,    3584,    3585,    3599,    3598
    3338,    3585,    3586,    3600,    3599
** ... 140 like lines cut
*ELEMENT, TYPE=S4R, ELSET=EB120
    7307,    1866,    3679,    6728,    6257
    7308,    3680,    6726,    6728,    3679
    3426,    3681,    3680,    3679,    3678
    3427,    3682,    3558,    1766,    3681
    3428,    3682,    3681,    3678,    3677
    3429,    3683,    3559,    3558,    3682
    3430,    3683,    3682,    3677,    3676
    3431,    3684,    3560,    3559,    3683
    3432,    3684,    3683,    3676,    3675
    3433,    3685,    3561,    3560,    3684
    3434,    3685,    3684,    3675,    3674
    3435,    3686,    3562,    3561,    3685
    3436,    3686,    3685,    3674,    3673
    3437,    3687,    3563,    3562,    3686
    3438,    3687,    3686,    3673,    3672
    3439,    3688,    3564,    3563,    3687
    3440,    3688,    3687,    3672,    3671
    3441,    3689,    3565,    3564,    3688
    3442,    3689,    3688,    3671,    3670
    3443,    3690,    3566,    3565,    3689
** ... 18 like lines cut
*ELEMENT, TYPE=S4R, ELSET=EB121
    7329,    1885,    4392,    6739,    3791
    3453,    3666,    3667,    3709,    3708
    3454,    3667,    3668,    3710,    3709
    3455,    3668,    3669,    3711,    3710
    3456,    3669,    3670,    3712,    3711
    3457,    3670,    3671,    3713,    3712
    3458,    3671,    3672,    3714,    3713
    3459,    3672,    3673,    3715,    3714
    3460,    3673,    3674,    3716,    3715
    3461,    3674,    3675,    3717,    3716
    3462,    3675,    3676,    3718,    3717
    3463,    3676,    3677,    3719,    3718
    3464,    3677,    3678,    3720,    3719
    3465,    3678,    3679,    3721,    3720
    7319,    1883,    3763,    6734,    6428
    7318,    1882,    6428,    6734,    6732
    3468,    3708,    3709,    3723,    3722
    3469,    3709,    3710,    3724,    3723
    3470,    3710,    3711,    3725,    3724
    3471,    3711,    3712,    3726,    3725
** ... 113 like lines cut
*ELEMENT, TYPE=S4R, ELSET=EB122
    3557,    3816,    2015,    2007,    3805
    3558,    3817,    2014,    2015,    3816
    3559,    3817,    3816,    3805,    3804
    3560,    3818,    3815,    2014,    3817
    3561,    3818,    3817,    3804,    3803
    3562,    3819,    3814,    3815,    3818
    3563,    3819,    3818,    3803,    3802
    3564,    3820,    3813,    3814,    3819
    3565,    3820,    3819,    3802,    3801
    3566,    3821,    3812,    3813,    3820
    3567,    3821,    3820,    3801,    3800
    3568,    3822,    3811,    3812,    3821
    3569,    3822,    3821,    3800,    3799
    3570,    3823,    3810,    3811,    3822
    3571,    3823,    3822,    3799,    3798
    3572,    3824,    3809,    3810,    3823
    3573,    3824,    3823,    3798,    3797
    3574,    3825,    3808,    3809,    3824
    3575,    3825,    3824,    3797,    3796
    3576,    3826,    3807,    3808,    3825
** ... 8 like lines cut
*ELEMENT, TYPE=S4R, ELSET=EB123
    3585,    1957,    3792,    3830,    1959
    3586,    3792,    3793,    3831,    3830
    3587,    3793,    3794,    3832,    3831
    3588,    3794,    3795,    3833,    3832
    3589,    3795,    3796,    3834,    3833
    3590,    3796,    3797,    3835,    3834
    3591,    3797,    3798,    3836,    3835
    3592,    3798,    3799,    3837,    3836
    3593,    3799,    3800,    3838,    3837
    3594,    3800,    3801,    3839,    3838
    3595,    3801,    3802,    3840,    3839
    3596,    3802,    3803,    3841,    3840
    3597,    3803,    3804,    3842,    3841
    3598,    3804,    3805,    3843,    3842
    3599,    3805,    2007,    2013,    3843
    3600,    1959,    3830,    3844,    1960
    3601,    3830,    3831,    3845,    3844
    3602,    3831,    3832,    3846,    3845
    3603,    3832,    3833,    3847,    3846
    3604,    3833,    3834,    3848,    3847
** ... 87 like lines cut
*ELEMENT, TYPE=S4R, ELSET=EB124
    3690,    3928,    2057,    2056,    3927
    3691,    3929,    1956,    2057,    3928
    3692,    3929,    3928,    3927,    3926
    3693,    3930,    3806,    1956,    3929
    3694,    3930,    3929,    3926,    3925
    3695,    3931,    3807,    3806,    3930
    3696,    3931,    3930,    3925,    3924
    3697,    3932,    3808,    3807,    3931
    3698,    3932,    3931,    3924,    3923
    3699,    3933,    3809,    3808,    3932
    3700,    3933,    3932,    3923,    3922
    3701,    3934,    3810,    3809,    3933
    3702,    3934,    3933,    3922,    3921
    3703,    3935,    3811,    3810,    3934
    3704,    3935,    3934,    3921,    3920
    3705,    3936,    3812,    3811,    3935
    3706,    3936,    3935,    3920,    3919
    3707,    3937,    3813,    3812,    3936
    3708,    3937,    3936,    3919,    3918
    3709,    3938,    3814,    3813,    3937
** ... 8 like lines cut
*ELEMENT, TYPE=S4R, ELSET=EB125
    3718,    2101,    3914,    3956,    2107
    3719,    3914,    3915,    3957,    3956
    3720,    3915,    3916,    3958,    3957
    3721,    3916,    3917,    3959,    3958
    3722,    3917,    3918,    3960,    3959
    3723,    3918,    3919,    3961,    3960
    3724,    3919,    3920,    3962,    3961
    3725,    3920,    3921,    3963,    3962
    3726,    3921,    3922,    3964,    3963
    3727,    3922,    3923,    3965,    3964
    3728,    3923,    3924,    3966,    3965
    3729,    3924,    3925,    3967,    3966
    3730,    3925,    3926,    3968,    3967
    3731,    3926,    3927,    3969,    3968
    3732,    3927,    2056,    2070,    3969
    3733,    2107,    3956,    3970,    2106
    3734,    3956,    3957,    3971,    3970
    3735,    3957,    3958,    3972,    3971
    3736,    3958,    3959,    3973,    3972
    3737,    3959,    3960,    3974,    3973
** ... 85 like lines cut
*ELEMENT, TYPE=S4R, ELSET=EB126
    3823,    4064,    2205,    2197,    4053
    3824,    4065,    2204,    2205,    4064
    3825,    4065,    4064,    4053,    4052
    3826,    4066,    4063,    2204,    4065
    3827,    4066,    4065,    4052,    4051
    3828,    4067,    4062,    4063,    4066
    3829,    4067,    4066,    4051,    4050
    3830,    4068,    4061,    4062,    4067
    3831,    4068,    4067,    4050,    4049
    3832,    4069,    4060,    4061,    4068
    3833,    4069,    4068,    4049,    4048
    3834,    4070,    4059,    4060,    4069
    3835,    4070,    4069,    4048,    4047
    3836,    4071,    4058,    4059,    4070
    3837,    4071,    4070,    4047,    4046
    3838,    4072,    4057,    4058,    4071
    3839,    4072,    4071,    4046,    4045
    3840,    4073,    4056,    4057,    4072
    3841,    4073,    4072,    4045,    4044
    3842,    4074,    4055,    4056,    4073
** ... 8 like lines cut
*ELEMENT, TYPE=S4R, ELSET=EB127
    3851,    2147,    4040,    4078,    2149
    3852,    4040,    4041,    4079,    4078
    3853,    4041,    4042,    4080,    4079
    3854,    4042,    4043,    4081,    4080
    3855,    4043,    4044,    4082,    4081
    3856,    4044,    4045,    4083,    4082
    3857,    4045,    4046,    4084,    4083
    3858,    4046,    4047,    4085,    4084
    3859,    4047,    4048,    4086,    4085
    3860,    4048,    4049,    4087,    4086
    3861,    4049,    4050,    4088,    4087
    3862,    4050,    4051,    4089,    4088
    3863,    4051,    4052,    4090,    4089
    3864,    4052,    4053,    4091,    4090
    3865,    4053,    2197,    2203,    4091
    3866,    2149,    4078,    4092,    2150
    3867,    4078,    4079,    4093,    4092
    3868,    4079,    4080,    4094,    4093
    3869,    4080,    4081,    4095,    4094
    3870,    4081,    4082,    4096,    4095
** ... 85 like lines cut
**
********************************** P R O P E R T I E S ************************
*SHELL SECTION, ELSET=EB128, SECTION INTEGRATION=SIMPSON, MATERIAL=Default-Steel
1.000000e+00
*SHELL SECTION, ELSET=EB129, SECTION INTEGRATION=SIMPSON, MATERIAL=Default-Steel
1.000000e+00
*SHELL SECTION, ELSET=EB6, SECTION INTEGRATION=SIMPSON, MATERIAL=Default-Steel
1.000000e+00
*SHELL SECTION, ELSET=EB7, SECTION INTEGRATION=SIMPSON, MATERIAL=Default-Steel
1.000000e+00
*SHELL SECTION, ELSET=EB9, SECTION INTEGRATION=SIMPSON, MATERIAL=Default-Steel
1.000000e+00
*SHELL SECTION, ELSET=EB10, SECTION INTEGRATION=SIMPSON, MATERIAL=Default-Steel
1.000000e+00
*SHELL SECTION, ELSET=EB11, SECTION INTEGRATION=SIMPSON, MATERIAL=Default-Steel
1.000000e+00
*SHELL SECTION, ELSET=EB12, SECTION INTEGRATION=SIMPSON, MATERIAL=Default-Steel
1.000000e+00
*SHELL SECTION, ELSET=EB14, SECTION INTEGRATION=SIMPSON, MATERIAL=Default-Steel
1.000000e+00
*SHELL SECTION, ELSET=EB15, SECTION INTEGRATION=SIMPSON, MATERIAL=Default-Steel
1.000000e+00
*SHELL SECTION, ELSET=EB17, SECTION INTEGRATION=SIMPSON, MATERIAL=Default-Steel
1.000000e+00
*SHELL SECTION, ELSET=EB18, SECTION INTEGRATION=SIMPSON, MATERIAL=Default-Steel
1.000000e+00
*SHELL SECTION, ELSET=EB20, SECTION INTEGRATION=SIMPSON, MATERIAL=Default-Steel
1.000000e+00
*SHELL SECTION, ELSET=EB21, SECTION INTEGRATION=SIMPSON, MATERIAL=Default-Steel
1.000000e+00
*SHELL SECTION, ELSET=EB23, SECTION INTEGRATION=SIMPSON, MATERIAL=Default-Steel
1.000000e+00
*SHELL SECTION, ELSET=EB24, SECTION INTEGRATION=SIMPSON, MATERIAL=Default-Steel
1.000000e+00
*SHELL SECTION, ELSET=EB26, SECTION INTEGRATION=SIMPSON, MATERIAL=Default-Steel
1.000000e+00
*SHELL SECTION, ELSET=EB27, SECTION INTEGRATION=SIMPSON, MATERIAL=Default-Steel
1.000000e+00
*SHELL SECTION, ELSET=EB29, SECTION INTEGRATION=SIMPSON, MATERIAL=Default-Steel
1.000000e+00
*SHELL SECTION, ELSET=EB45, SECTION INTEGRATION=SIMPSON, MATERIAL=Default-Steel
1.000000e+00
** ... 102 like lines cut
**
*END PART
**
**
**
********************************** E N D   P A R T S **********************************
**
**
********************************** A S S E M B L Y ************************************
**
*ASSEMBLY, NAME=ASSEMBLY1
**
*INSTANCE, NAME=Part-Default_1, PART=Part-Default
*END INSTANCE
**
*END ASSEMBLY
**
**
**
*MATERIAL, NAME = Default-Steel
*ELASTIC, TYPE=ISOTROPIC
2.068000e+05, 2.900000e-01
*DENSITY
7.000000e-06
*CONDUCTIVITY,TYPE=ISO
4.500000e-02
*SPECIFIC HEAT
5.000000e+02
**
**
************************************** H I S T O R Y *************************************
**
*PREPRINT
**
**************************************** S T E P 1 ***************************************
*STEP,INC=100,NAME=Default Set
**
*STATIC
1, 1, 1e-05, 1
**
**
**
**
*END STEP
