*HEADING
cubit(/home/wzhenlin/workspace/cubitMesh/2D/2D_R10_labeled.inp): 02/03/2018: 17:
version: 13.2
**
********************************** P A R T S **********************************
*PART, NAME=Part-Default
**
********************************** N O D E S **********************************
*NODE, NSET=ALLNODES
       1,    6.614378e+00,    2.350000e+01,    0.000000e+00
       2,    8.660254e+00,    2.100000e+01,    0.000000e+00
       3,    7.385308e+00,    2.274220e+01,    0.000000e+00
       4,    8.069934e+00,    2.190560e+01,    0.000000e+00
       5,    1.000000e+01,    1.600000e+01,    0.000000e+00
       6,    9.135455e+00,    2.006737e+01,    0.000000e+00
       7,    9.510565e+00,    1.909017e+01,    0.000000e+00
       8,    9.781476e+00,    1.807912e+01,    0.000000e+00
       9,    9.945219e+00,    1.704528e+01,    0.000000e+00
      10,    1.300000e+01,    1.600000e+01,    0.000000e+00
      11,    1.225000e+01,    1.600000e+01,    0.000000e+00
      12,    1.150000e+01,    1.600000e+01,    0.000000e+00
      13,    1.075000e+01,    1.600000e+01,    0.000000e+00
      14,    1.300000e+01,    2.350000e+01,    0.000000e+00
      15,    1.300000e+01,    1.693750e+01,    0.000000e+00
      16,    1.300000e+01,    1.787500e+01,    0.000000e+00
      17,    1.300000e+01,    1.881250e+01,    0.000000e+00
      18,    1.300000e+01,    1.975000e+01,    0.000000e+00
      19,    1.300000e+01,    2.068750e+01,    0.000000e+00
      20,    1.300000e+01,    2.162500e+01,    0.000000e+00
** ... 4158 like lines cut
**
********************************** E L E M E N T S ****************************
*ELEMENT, TYPE=S4R, ELSET=EB1
    2147,       2,    2439,    2499,       6
    2148,    2439,    2440,    2500,    2499
    2149,    2440,    2441,    2501,    2500
    2150,    2441,    2442,    2502,    2501
    2151,    2442,    2443,    2503,    2502
    2152,    2443,    2444,    2504,    2503
    2153,    2444,    2445,    2505,    2504
    2154,    2445,    2446,    2506,    2505
    2155,    2446,    2447,    2507,    2506
    2156,    2447,    2448,    2508,    2507
    2157,    2448,    2449,    2509,    2508
    2158,    2449,    2450,    2510,    2509
    2159,    2450,    2451,    2511,    2510
    2160,    2451,    2452,    2512,    2511
    2161,    2452,    2453,    2513,    2512
    2162,    2453,      47,      51,    2513
    2163,       6,    2499,    2514,       7
    2164,    2499,    2500,    2515,    2514
    2165,    2500,    2501,    2516,    2515
    2166,    2501,    2502,    2517,    2516
** ... 1196 like lines cut
*ELEMENT, TYPE=S4R, ELSET=EB2
       1,       1,       3,      25,      24
       2,       3,       4,      26,      25
       3,       4,       2,      27,      26
       4,       2,       6,      28,      27
       5,       6,       7,      29,      28
       6,       7,       8,      30,      29
       7,       8,       9,      31,      30
       8,       9,       5,      13,      31
       9,      24,      25,      32,      23
      10,      25,      26,      33,      32
      11,      26,      27,      34,      33
      12,      27,      28,      35,      34
      13,      28,      29,      36,      35
      14,      29,      30,      37,      36
      15,      30,      31,      38,      37
      16,      31,      13,      12,      38
      17,      23,      32,      39,      22
      18,      32,      33,      40,      39
      19,      33,      34,      41,      40
      20,      34,      35,      42,      41
** ... 1292 like lines cut
*ELEMENT, TYPE=S4R, ELSET=EB3
     129,      10,      11,     241,     240
     130,      11,      12,     242,     241
     131,      12,      13,     243,     242
     132,      13,       5,     244,     243
     133,       5,     171,     245,     244
     134,     171,     172,     246,     245
     135,     172,     173,     247,     246
     136,     173,     174,     248,     247
     137,     174,     175,     249,     248
     138,     175,     176,     250,     249
     139,     176,     177,     251,     250
     140,     177,     178,     252,     251
     141,     178,     179,     253,     252
     142,     179,     180,     254,     253
     143,     180,     181,     255,     254
     144,     181,     182,     256,     255
     145,     182,     183,     257,     256
     146,     183,     184,     258,     257
     147,     184,     185,     259,     258
     148,     185,      46,     260,     259
** ... 1252 like lines cut
*ELEMENT, TYPE=S4R, ELSET=EB4
     952,    1145,    1148,    1164,    1159
     953,    1148,    1147,    1165,    1164
     954,    1147,    1146,    1166,    1165
     955,    1146,    1144,    1154,    1166
     956,    1159,    1164,    1167,    1160
     957,    1164,    1165,    1168,    1167
     958,    1165,    1166,    1169,    1168
     959,    1166,    1154,    1153,    1169
     960,    1160,    1167,    1170,    1161
     961,    1167,    1168,    1171,    1170
     962,    1168,    1169,    1172,    1171
     963,    1169,    1153,    1152,    1172
     964,    1161,    1170,    1173,    1162
     965,    1170,    1171,    1174,    1173
     966,    1171,    1172,    1175,    1174
     967,    1172,    1152,    1151,    1175
     968,    1162,    1173,    1176,    1163
     969,    1173,    1174,    1177,    1176
     970,    1174,    1175,    1178,    1177
     971,    1175,    1151,    1150,    1178
** ... 166 like lines cut
**
********************************** P R O P E R T I E S ************************
*SHELL SECTION, ELSET=EB1, SECTION INTEGRATION=SIMPSON, MATERIAL=Default-Steel
1.000000e+00
*SHELL SECTION, ELSET=EB2, SECTION INTEGRATION=SIMPSON, MATERIAL=Default-Steel
1.000000e+00
*SHELL SECTION, ELSET=EB3, SECTION INTEGRATION=SIMPSON, MATERIAL=Default-Steel
1.000000e+00
*SHELL SECTION, ELSET=EB4, SECTION INTEGRATION=SIMPSON, MATERIAL=Default-Steel
1.000000e+00
**
*END PART
**
**
**
********************************** E N D   P A R T S **********************************
**
**
********************************** A S S E M B L Y ************************************
**
*ASSEMBLY, NAME=ASSEMBLY1
**
*INSTANCE, NAME=Part-Default_1, PART=Part-Default
*END INSTANCE
**
*END ASSEMBLY
**
**
**
*MATERIAL, NAME = Default-Steel
*ELASTIC, TYPE=ISOTROPIC
2.068000e+05, 2.900000e-01
*DENSITY
7.000000e-06
*CONDUCTIVITY,TYPE=ISO
4.500000e-02
*SPECIFIC HEAT
5.000000e+02
**
**
************************************** H I S T O R Y *************************************
**
*PREPRINT
**
**************************************** S T E P 1 ***************************************
*STEP,INC=100,NAME=Default Set
**
*STATIC
1, 1, 1e-05, 1
**
**
**
**
*END STEP
