*HEADING
cubit(/home/wzhenlin/workspace/cubitMesh/2D/2D_R10.inp): 02/03/2018: 15:57:01
version: 13.2
**
********************************** P A R T S **********************************
*PART, NAME=Part-Default
**
********************************** N O D E S **********************************
*NODE, NSET=ALLNODES
       1,    8.660254e+00,    2.100000e+01
       2,    7.577722e+00,    2.100000e+01
       3,    7.993523e+00,    2.006737e+01
       4,    9.135455e+00,    2.006737e+01
       5,    6.495191e+00,    2.100000e+01
       6,    6.851591e+00,    2.006737e+01
       7,    5.412659e+00,    2.100000e+01
       8,    5.709659e+00,    2.006737e+01
       9,    4.330127e+00,    2.100000e+01
      10,    4.567727e+00,    2.006737e+01
      11,    3.247595e+00,    2.100000e+01
      12,    3.425795e+00,    2.006737e+01
      13,    2.165064e+00,    2.100000e+01
      14,    2.283864e+00,    2.006737e+01
      15,    1.082532e+00,    2.100000e+01
      16,    1.141932e+00,    2.006737e+01
      17,    0.000000e+00,    2.100000e+01
      18,    8.881784e-16,    2.006737e+01
      19,   -1.082532e+00,    2.100000e+01
      20,   -1.141932e+00,    2.006737e+01
** ... 4158 like lines cut
**
********************************** E L E M E N T S ****************************
*ELEMENT, TYPE=S4R, ELSET=EB1
       1,       1,       2,       3,       4
       2,       2,       5,       6,       3
       3,       5,       7,       8,       6
       4,       7,       9,      10,       8
       5,       9,      11,      12,      10
       6,      11,      13,      14,      12
       7,      13,      15,      16,      14
       8,      15,      17,      18,      16
       9,      17,      19,      20,      18
      10,      19,      21,      22,      20
      11,      21,      23,      24,      22
      12,      23,      25,      26,      24
      13,      25,      27,      28,      26
      14,      27,      29,      30,      28
      15,      29,      31,      32,      30
      16,      31,      33,      34,      32
      17,       4,       3,      35,      36
      18,       3,       6,      37,      35
      19,       6,       8,      38,      37
      20,       8,      10,      39,      38
** ... 1196 like lines cut
*ELEMENT, TYPE=S4R, ELSET=EB2
    1217,     102,      85,    1446,    1447
    1218,      85,      68,    1448,    1446
    1219,      68,      51,    1449,    1448
    1220,      51,      34,    1450,    1449
    1221,      34,      33,    1451,    1450
    1222,      33,    1452,    1453,    1451
    1223,    1452,    1454,    1455,    1453
    1224,    1454,    1456,    1457,    1455
    1225,    1447,    1446,    1458,    1459
    1226,    1446,    1448,    1460,    1458
    1227,    1448,    1449,    1461,    1460
    1228,    1449,    1450,    1462,    1461
    1229,    1450,    1451,    1463,    1462
    1230,    1451,    1453,    1464,    1463
    1231,    1453,    1455,    1465,    1464
    1232,    1455,    1457,    1466,    1465
    1233,    1459,    1458,    1467,    1468
    1234,    1458,    1460,    1469,    1467
    1235,    1460,    1461,    1470,    1469
    1236,    1461,    1462,    1471,    1470
** ... 1292 like lines cut
*ELEMENT, TYPE=S4R, ELSET=EB3
    2529,    1523,    1514,    2885,    2886
    2530,    1514,    1505,    2887,    2885
    2531,    1505,    1496,    2888,    2887
    2532,    1496,      87,    2889,    2888
    2533,      87,      86,    2890,    2889
    2534,      86,      88,    2891,    2890
    2535,      88,      89,    2892,    2891
    2536,      89,      90,    2893,    2892
    2537,      90,      91,    2894,    2893
    2538,      91,      92,    2895,    2894
    2539,      92,      93,    2896,    2895
    2540,      93,      94,    2897,    2896
    2541,      94,      95,    2898,    2897
    2542,      95,      96,    2899,    2898
    2543,      96,      97,    2900,    2899
    2544,      97,      98,    2901,    2900
    2545,      98,      99,    2902,    2901
    2546,      99,     100,    2903,    2902
    2547,     100,     101,    2904,    2903
    2548,     101,     102,    2905,    2904
** ... 1252 like lines cut
*ELEMENT, TYPE=S4R, ELSET=EB4
    3801,    2124,    4035,    4036,    2126
    3802,    4035,    4037,    4038,    4036
    3803,    4037,    4039,    4040,    4038
    3804,    4039,    2108,    2106,    4040
    3805,    2126,    4036,    4041,    2128
    3806,    4036,    4038,    4042,    4041
    3807,    4038,    4040,    4043,    4042
    3808,    4040,    2106,    2104,    4043
    3809,    2128,    4041,    4044,    2130
    3810,    4041,    4042,    4045,    4044
    3811,    4042,    4043,    4046,    4045
    3812,    4043,    2104,    2102,    4046
    3813,    2130,    4044,    4047,    2132
    3814,    4044,    4045,    4048,    4047
    3815,    4045,    4046,    4049,    4048
    3816,    4046,    2102,    2100,    4049
    3817,    2132,    4047,    4050,    2134
    3818,    4047,    4048,    4051,    4050
    3819,    4048,    4049,    4052,    4051
    3820,    4049,    2100,    2075,    4052
** ... 166 like lines cut
**
********************************** P R O P E R T I E S ************************
*SHELL SECTION, ELSET=EB1, SECTION INTEGRATION=SIMPSON, MATERIAL=Default-Steel
1.000000e+00
*SHELL SECTION, ELSET=EB2, SECTION INTEGRATION=SIMPSON, MATERIAL=Default-Steel
1.000000e+00
*SHELL SECTION, ELSET=EB3, SECTION INTEGRATION=SIMPSON, MATERIAL=Default-Steel
1.000000e+00
*SHELL SECTION, ELSET=EB4, SECTION INTEGRATION=SIMPSON, MATERIAL=Default-Steel
1.000000e+00
**
*END PART
**
**
**
********************************** E N D   P A R T S **********************************
**
**
********************************** A S S E M B L Y ************************************
**
*ASSEMBLY, NAME=ASSEMBLY1
**
*INSTANCE, NAME=Part-Default_1, PART=Part-Default
*END INSTANCE
**
*END ASSEMBLY
**
**
**
*MATERIAL, NAME = Default-Steel
*ELASTIC, TYPE=ISOTROPIC
2.068000e+05, 2.900000e-01
*DENSITY
7.000000e-06
*CONDUCTIVITY,TYPE=ISO
4.500000e-02
*SPECIFIC HEAT
5.000000e+02
**
**
************************************** H I S T O R Y *************************************
**
*PREPRINT
**
**************************************** S T E P 1 ***************************************
*STEP,INC=100,NAME=Default Set
**
*STATIC
1, 1, 1e-05, 1
**
**
**
**
*END STEP
