*HEADING
cubit(/home/wzhenlin/workspace/cubitMesh/1particle.inp): 03/16/2017: 19:56:03
version: 13.2
**
********************************** P A R T S **********************************
*PART, NAME=Part-Default
**
********************************** N O D E S **********************************
*NODE, NSET=ALLNODES
       1,    3.000000e-01,    6.000000e-01,   -3.673940e-17
       2,    0.000000e+00,    6.000000e-01,   -3.000000e-01
       3,    2.969464e-01,    6.000000e-01,   -4.269445e-02
       4,    2.878479e-01,    6.000000e-01,   -8.451977e-02
       5,    2.728896e-01,    6.000000e-01,   -1.246245e-01
       6,    2.523761e-01,    6.000000e-01,   -1.621922e-01
       7,    2.267249e-01,    6.000000e-01,   -1.964582e-01
       8,    1.964582e-01,    6.000000e-01,   -2.267249e-01
       9,    1.621922e-01,    6.000000e-01,   -2.523761e-01
      10,    1.246245e-01,    6.000000e-01,   -2.728896e-01
      11,    8.451977e-02,    6.000000e-01,   -2.878479e-01
      12,    4.269445e-02,    6.000000e-01,   -2.969464e-01
      13,    0.000000e+00,    6.000000e-01,    3.000000e-01
      14,   -3.915786e-02,    6.000000e-01,    2.974335e-01
      15,   -7.764571e-02,    6.000000e-01,    2.897777e-01
      16,   -1.148050e-01,    6.000000e-01,    2.771639e-01
      17,   -1.500000e-01,    6.000000e-01,    2.598076e-01
      18,   -1.826284e-01,    6.000000e-01,    2.380060e-01
      19,   -2.121320e-01,    6.000000e-01,    2.121320e-01
      20,   -2.380060e-01,    6.000000e-01,    1.826284e-01
** ... 17411 like lines cut
**
********************************** E L E M E N T S ****************************
*ELEMENT, TYPE=C3D8R, ELSET=EB13
   14689,   14108,   17168,   17169,   14085,   13019,   16813,   16812,   13020
   14690,   17169,   17168,    5891,    5868,   16812,   16813,    5858,    5857
   14691,   14131,   17170,   17168,   14108,   13018,   16814,   16813,   13019
   14692,   17168,   17170,    5914,    5891,   16813,   16814,    5859,    5858
   14693,   14154,   17171,   17170,   14131,   13017,   16815,   16814,   13018
   14694,   17170,   17171,    5937,    5914,   16814,   16815,    5860,    5859
   14695,   14177,   17172,   17171,   14154,   13016,   16816,   16815,   13017
   14696,   17171,   17172,    5960,    5937,   16815,   16816,    5861,    5860
   14697,   14200,   17173,   17172,   14177,   13015,   16817,   16816,   13016
   14698,   17172,   17173,    5983,    5960,   16816,   16817,    5862,    5861
   14699,   16856,    5678,    6098,   17174,   16210,    5676,    5867,   16818
   14700,   16879,   16856,   17174,   17175,   16211,   16210,   16818,   16819
   14701,   16902,   16879,   17175,   17176,   16212,   16211,   16819,   16820
   14702,   16925,   16902,   17176,   17177,   16213,   16212,   16820,   16821
   14703,      12,   16925,   17177,    1034,       2,   16213,   16821,     256
   14704,   17173,   14200,   14223,   17178,   16817,   13015,   13014,   16822
   14705,    5983,   17173,   17178,    6006,    5862,   16817,   16822,    5863
   14706,    6029,    6006,   17178,   17179,    5864,    5863,   16822,   16823
   14707,    6052,    6029,   17179,   17180,    5865,    5864,   16823,   16824
   14708,    6075,    6052,   17180,   17181,    5866,    5865,   16824,   16825
** ... 844 like lines cut
*ELEMENT, TYPE=C3D8R, ELSET=EB14
   13825,   16189,   12785,   12784,   16188,   16549,   13044,   13021,   16548
   13826,   16189,   16188,    5856,    5855,   16549,   16548,    9463,    9486
   13827,   16190,   12786,   12785,   16189,   16550,   13067,   13044,   16549
   13828,   16190,   16189,    5855,    5854,   16550,   16549,    9486,    9509
   13829,   16191,   12787,   12786,   16190,   16551,   13090,   13067,   16550
   13830,   16191,   16190,    5854,    5853,   16551,   16550,    9509,    9532
   13831,   16192,   12788,   12787,   16191,   16552,   13113,   13090,   16551
   13832,   16192,   16191,    5853,    5852,   16552,   16551,    9532,    9555
   13833,   16193,   12789,   12788,   16192,   16553,   13136,   13113,   16552
   13834,   16193,   16192,    5852,    5851,   16553,   16552,    9555,    9578
   13835,    5677,   16187,   16194,    5846,    9301,   16236,   16554,    9693
   13836,   16187,   16186,   16195,   16194,   16236,   16259,   16555,   16554
   13837,   16186,   16185,   16196,   16195,   16259,   16282,   16556,   16555
   13838,   16185,   16184,   16197,   16196,   16282,   16305,   16557,   16556
   13839,   16184,      13,     231,   16197,   16305,      14,     259,   16557
   13840,   12789,   16193,   16198,   12790,   13136,   16553,   16558,   13159
   13841,   16193,    5851,    5850,   16198,   16553,    9578,    9601,   16558
   13842,    5850,    5849,   16199,   16198,    9601,    9624,   16559,   16558
   13843,    5849,    5848,   16200,   16199,    9624,    9647,   16560,   16559
   13844,    5848,    5847,   16201,   16200,    9647,    9670,   16561,   16560
** ... 844 like lines cut
*ELEMENT, TYPE=C3D8R, ELSET=EB4
       1,    1004,    1007,    3349,    3350,       1,       3,      50,      49
       2,    1007,    1010,    3351,    3349,       3,       4,      51,      50
       3,    1010,    1013,    3352,    3351,       4,       5,      52,      51
       4,    1013,    1016,    3353,    3352,       5,       6,      53,      52
       5,    1016,    1019,    3354,    3353,       6,       7,      54,      53
       6,    1019,    1022,    3355,    3354,       7,       8,      55,      54
       7,    1022,    1025,    3356,    3355,       8,       9,      56,      55
       8,    1025,    1028,    3357,    3356,       9,      10,      57,      56
       9,    1028,    1031,    3358,    3357,      10,      11,      58,      57
      10,    1031,    1034,    3359,    3358,      11,      12,      59,      58
      11,    1034,     256,    3360,    3359,      12,       2,      60,      59
      12,     256,     325,    3361,    3360,       2,      36,      61,      60
      13,     325,     322,    3362,    3361,      36,      35,      62,      61
      14,     322,     319,    3363,    3362,      35,      34,      63,      62
      15,     319,     316,    3364,    3363,      34,      33,      64,      63
      16,     316,     313,    3365,    3364,      33,      32,      65,      64
      17,     313,     310,    3366,    3365,      32,      31,      66,      65
      18,     310,     307,    3367,    3366,      31,      30,      67,      66
      19,     307,     304,    3368,    3367,      30,      29,      68,      67
      20,     304,     301,    3369,    3368,      29,      28,      69,      68
** ... 4828 like lines cut
*ELEMENT, TYPE=C3D8R, ELSET=EB5
    6121,    7597,    8462,    8818,    7608,    5821,    6122,    7492,    5823
    6122,    8462,    8318,    8350,    8818,    6122,    6121,    6180,    7492
    6123,    8040,    8086,    8819,    8340,    6169,    6479,    7493,    6170
    6124,    8086,    8085,    8820,    8819,    6479,    6478,    7494,    7493
    6125,    8085,    8084,    8821,    8820,    6478,    6477,    7495,    7494
    6126,    8084,    8083,    8822,    8821,    6477,    6476,    7496,    7495
    6127,    8083,    8082,    8823,    8822,    6476,    6475,    7497,    7496
    6128,    8082,    8081,    8824,    8823,    6475,    6474,    7498,    7497
    6129,    8081,    8080,    8825,    8824,    6474,    6473,    7499,    7498
    6130,    8078,    8077,    8826,    8827,    6471,    6470,    7500,    7501
    6131,    8077,    8076,    8828,    8826,    6470,    6469,    7502,    7500
    6132,    8076,    8075,    8829,    8828,    6469,    6468,    7503,    7502
    6133,    8075,    8074,    8830,    8829,    6468,    6467,    7504,    7503
    6134,    8074,    8073,    8831,    8830,    6467,    6466,    7505,    7504
    6135,    8073,    8072,    8832,    8831,    6466,    6465,    7506,    7505
    6136,    8072,    8071,    8833,    8832,    6465,    6464,    7507,    7506
    6137,    8071,    8070,    8834,    8833,    6464,    6463,    7508,    7507
    6138,    8070,    8069,    8835,    8834,    6463,    6462,    7509,    7508
    6139,    8069,    8068,    8836,    8835,    6462,    6461,    7510,    7509
    6140,    8068,    8067,    8837,    8836,    6461,    6460,    7511,    7510
** ... 1252 like lines cut
*ELEMENT, TYPE=C3D8R, ELSET=EB6
   11017,   14246,   14588,    1379,     943,   13013,   13872,     583,     232
   11018,   14223,   14589,   14588,   14246,   13014,   13873,   13872,   13013
   11019,   14588,   14589,    1378,    1379,   13872,   13873,     584,     583
   11020,    1365,   14590,   14084,     475,     597,   13874,   12828,     357
   11021,    1366,   14591,   14590,    1365,     596,   13875,   13874,     597
   11022,   14590,   14591,   14061,   14084,   13874,   13875,   12827,   12828
   11023,   14591,    1366,    1367,   14592,   13875,     596,     595,   13876
   11024,   14061,   14591,   14592,   14038,   12827,   13875,   13876,   12826
   11025,   14589,   14223,   14200,   14593,   13873,   13014,   13015,   13877
   11026,    1378,   14589,   14593,    1377,     584,   13873,   13877,     585
   11027,    1376,    1377,   14593,   14594,     586,     585,   13877,   13878
   11028,    1375,    1376,   14594,   14595,     587,     586,   13878,   13879
   11029,    1374,    1375,   14595,   14596,     588,     587,   13879,   13880
   11030,    1372,    1373,   14597,   14598,     590,     589,   13881,   13882
   11031,    1371,    1372,   14598,   14599,     591,     590,   13882,   13883
   11032,    1370,    1371,   14599,   14600,     592,     591,   13883,   13884
   11033,    1369,    1370,   14600,   14601,     593,     592,   13884,   13885
   11034,    1368,    1369,   14601,   14602,     594,     593,   13885,   13886
   11035,    1367,    1368,   14602,   14592,     595,     594,   13886,   13876
   11036,   14015,   14038,   14592,   14602,   12825,   12826,   13876,   13886
** ... 1060 like lines cut
*ELEMENT, TYPE=C3D8R, ELSET=EB7
    9937,   12792,   12791,     228,     582,   13524,   13182,     233,     598
    9938,   12793,   12790,   12791,   12792,   13525,   13159,   13182,   13524
    9939,   12793,   12792,     582,     581,   13525,   13524,     598,     599
    9940,   12794,     568,     329,   12776,   13526,     612,     383,   13012
    9941,   12795,     569,     568,   12794,   13527,     611,     612,   13526
    9942,   12795,   12794,   12776,   12777,   13527,   13526,   13012,   12989
    9943,     569,   12795,   12796,     570,     611,   13527,   13528,     610
    9944,   12795,   12777,   12778,   12796,   13527,   12989,   12966,   13528
    9945,   12790,   12793,   12797,   12789,   13159,   13525,   13529,   13136
    9946,   12793,     581,     580,   12797,   13525,     599,     600,   13529
    9947,     580,     579,   12813,   12797,     600,     601,   13530,   13529
    9948,     579,     578,   12798,   12813,     601,     602,   13531,   13530
    9949,     578,     577,   12820,   12798,     602,     603,   13532,   13531
    9950,     576,     575,   12800,   12799,     604,     605,   13534,   13533
    9951,     575,     574,   12801,   12800,     605,     606,   13535,   13534
    9952,     574,     573,   12802,   12801,     606,     607,   13536,   13535
    9953,     573,     572,   12803,   12802,     607,     608,   13537,   13536
    9954,     572,     571,   12804,   12803,     608,     609,   13538,   13537
    9955,     571,     570,   12796,   12804,     609,     610,   13528,   13538
    9956,   12778,   12779,   12804,   12796,   12966,   12943,   13538,   13528
** ... 1060 like lines cut
*ELEMENT, TYPE=C3D8R, ELSET=EB8
    8665,    7872,   11417,   12293,    7884,    6145,   10158,   11039,    6157
    8666,   11417,   11416,   12294,   12293,   10158,   10157,   11040,   11039
    8667,   11416,   11415,   12295,   12294,   10157,   10156,   11041,   11040
    8668,   11415,   11414,   12296,   12295,   10156,   10155,   11042,   11041
    8669,   11414,   11413,   12297,   12296,   10155,   10154,   11043,   11042
    8670,   11413,   11412,   12298,   12297,   10154,   10153,   11044,   11043
    8671,   11412,   11411,   12299,   12298,   10153,   10152,   11045,   11044
    8672,   11411,   11410,   12300,   12299,   10152,   10151,   11046,   11045
    8673,   11410,   11409,   12301,   12300,   10151,   10150,   11047,   11046
    8674,   11409,   11408,   12302,   12301,   10150,   10149,   11048,   11047
    8675,   11408,   11407,   12303,   12302,   10149,   10148,   11049,   11048
    8676,   11407,   11406,   11717,   12303,   10148,    9717,    9740,   11049
    8677,    8318,    8462,   12304,   11551,    6121,    6122,   11050,   10016
    8678,    8462,    7597,   11153,   12304,    6122,    5821,    9462,   11050
    8679,   11717,   11716,   12305,   12303,    9740,    9739,   11051,   11049
    8680,   11716,   11715,   12306,   12305,    9739,    9738,   11052,   11051
    8681,   11715,   11714,   12307,   12306,    9738,    9737,   11053,   11052
    8682,   11714,   11713,   12308,   12307,    9737,    9736,   11054,   11053
    8683,   11713,   11712,   12309,   12308,    9736,    9735,   11055,   11054
    8684,   11712,   11711,   12310,   12309,    9735,    9734,   11056,   11055
** ... 1252 like lines cut
*ELEMENT, TYPE=C3D8R, ELSET=EB9
    4849,    5846,    6134,    7078,    6120,    5677,    5702,    5752,    5700
    4850,    6134,    6123,    6302,    7078,    5702,    5701,    5714,    5752
    4851,    6191,    6710,    7079,    6312,    5703,    5716,    5753,    5704
    4852,    6710,    6711,    7080,    7079,    5716,    5717,    5754,    5753
    4853,    6711,    6712,    7081,    7080,    5717,    5718,    5755,    5754
    4854,    6712,    6713,    7082,    7081,    5718,    5719,    5756,    5755
    4855,    6713,    6714,    7083,    7082,    5719,    5720,    5757,    5756
    4856,    6714,    6715,    7084,    7083,    5720,    5721,    5758,    5757
    4857,    6715,    6716,    7085,    7084,    5721,    5722,    5759,    5758
    4858,    6718,    6719,    7086,    7087,    5724,    5725,    5762,    5761
    4859,    6719,    6720,    7088,    7086,    5725,    5726,    5800,    5762
    4860,    6720,    6721,    7089,    7088,    5726,    5727,    5799,    5800
    4861,    6721,    6722,    7090,    7089,    5727,    5728,    5763,    5799
    4862,    6722,    6723,    7091,    7090,    5728,    5729,    5764,    5763
    4863,    6723,    6724,    7092,    7091,    5729,    5730,    5765,    5764
    4864,    6724,    6725,    7093,    7092,    5730,    5731,    5793,    5765
    4865,    6725,    6726,    7094,    7093,    5731,    5732,    5792,    5793
    4866,    6726,    6727,    7095,    7094,    5732,    5733,    5791,    5792
    4867,    6727,    6728,    7096,    7095,    5733,    5734,    5766,    5791
    4868,    6728,    6729,    7097,    7096,    5734,    5735,    5767,    5766
** ... 1252 like lines cut
*ELEMENT, TYPE=C3D8R, ELSET=EB10
    7393,    6156,   10269,   10625,    6168,    5739,    9335,    9371,    5751
    7394,   10269,   10270,   10626,   10625,    9335,    9334,    9372,    9371
    7395,   10270,   10271,   10627,   10626,    9334,    9333,    9373,    9372
    7396,   10271,   10272,   10628,   10627,    9333,    9332,    9425,    9373
    7397,   10272,   10273,   10629,   10628,    9332,    9331,    9424,    9425
    7398,   10273,   10274,   10630,   10629,    9331,    9330,    9423,    9424
    7399,   10274,   10275,   10631,   10630,    9330,    9329,    9374,    9423
    7400,   10275,   10276,   10632,   10631,    9329,    9328,    9375,    9374
    7401,   10276,   10277,   10633,   10632,    9328,    9327,    9376,    9375
    7402,   10277,   10278,   10634,   10633,    9327,    9326,    9377,    9376
    7403,   10278,   10279,   10635,   10634,    9326,    9325,    9378,    9377
    7404,   10279,    9762,    9993,   10635,    9325,    9324,    9359,    9378
    7405,    6123,    6134,   10636,   10147,    5701,    5702,    9379,    9360
    7406,    6134,    5846,    9693,   10636,    5702,    5677,    9301,    9379
    7407,    9993,    9994,   10637,   10635,    9359,    9358,    9380,    9378
    7408,    9994,    9995,   10638,   10637,    9358,    9357,    9381,    9380
    7409,    9995,    9996,   10639,   10638,    9357,    9356,    9382,    9381
    7410,    9996,    9997,   10640,   10639,    9356,    9355,    9383,    9382
    7411,    9997,    9998,   10641,   10640,    9355,    9354,    9384,    9383
    7412,    9998,    9999,   10642,   10641,    9354,    9353,    9385,    9384
** ... 1252 like lines cut
*ELEMENT, TYPE=C3D8R, ELSET=EB11
   12961,   13924,   15678,   15679,   13901,   12782,   15565,   15564,   12783
   12962,   15679,   15678,    7631,    7608,   15564,   15565,    7598,    7597
   12963,   13947,   15680,   15678,   13924,   12781,   15566,   15565,   12782
   12964,   15678,   15680,    7654,    7631,   15565,   15566,    7599,    7598
   12965,   13970,   15681,   15680,   13947,   12780,   15567,   15566,   12781
   12966,   15680,   15681,    7677,    7654,   15566,   15567,    7600,    7599
   12967,   13993,   15682,   15681,   13970,   12779,   15568,   15567,   12780
   12968,   15681,   15682,    7700,    7677,   15567,   15568,    7601,    7600
   12969,   14016,   15683,   15682,   13993,   12778,   15569,   15568,   12779
   12970,   15682,   15683,    7723,    7700,   15568,   15569,    7602,    7601
   12971,   15608,    7574,    7838,   15684,   14962,    7573,    7607,   15570
   12972,   15631,   15608,   15684,   15685,   14963,   14962,   15570,   15571
   12973,   15654,   15631,   15685,   15686,   14964,   14963,   15571,   15572
   12974,   15677,   15654,   15686,   15687,   14965,   14964,   15572,   15573
   12975,     498,   15677,   15687,     499,     328,   14965,   15573,     330
   12976,   15683,   14016,   14039,   15688,   15569,   12778,   12777,   15574
   12977,    7723,   15683,   15688,    7746,    7602,   15569,   15574,    7603
   12978,    7769,    7746,   15688,   15689,    7604,    7603,   15574,   15575
   12979,    7792,    7769,   15689,   15690,    7605,    7604,   15575,   15576
   12980,    7815,    7792,   15690,   15691,    7606,    7605,   15576,   15577
** ... 844 like lines cut
*ELEMENT, TYPE=C3D8R, ELSET=EB12
   12097,   14941,   12822,   12821,   14940,   15301,   12852,   12829,   15300
   12098,   14941,   14940,    7572,    7571,   15301,   15300,   11131,   11154
   12099,   14942,   12823,   12822,   14941,   15302,   12875,   12852,   15301
   12100,   14942,   14941,    7571,    7570,   15302,   15301,   11154,   11177
   12101,   14943,   12824,   12823,   14942,   15303,   12898,   12875,   15302
   12102,   14943,   14942,    7570,    7569,   15303,   15302,   11177,   11200
   12103,   14944,   12825,   12824,   14943,   15304,   12921,   12898,   15303
   12104,   14944,   14943,    7569,    7568,   15304,   15303,   11200,   11223
   12105,   14945,   12826,   12825,   14944,   15305,   12944,   12921,   15304
   12106,   14945,   14944,    7568,    7567,   15305,   15304,   11223,   11246
   12107,    7561,   14939,   14946,    7562,   11108,   14988,   15306,   11361
   12108,   14939,   14938,   14947,   14946,   14988,   15011,   15307,   15306
   12109,   14938,   14937,   14948,   14947,   15011,   15034,   15308,   15307
   12110,   14937,   14936,   14949,   14948,   15034,   15057,   15309,   15308
   12111,   14936,     333,     360,   14949,   15057,     334,     452,   15309
   12112,   12826,   14945,   14950,   12827,   12944,   15305,   15310,   12967
   12113,   14945,    7567,    7566,   14950,   15305,   11246,   11269,   15310
   12114,    7566,    7565,   14951,   14950,   11269,   11292,   15311,   15310
   12115,    7565,    7564,   14952,   14951,   11292,   11315,   15312,   15311
   12116,    7564,    7563,   14953,   14952,   11315,   11338,   15313,   15312
** ... 844 like lines cut
**
********************************** P R O P E R T I E S ************************
*SOLID SECTION, ELSET=EB13, MATERIAL=Default-Steel
*SOLID SECTION, ELSET=EB14, MATERIAL=Default-Steel
*SOLID SECTION, ELSET=EB4, MATERIAL=Default-Steel
*SOLID SECTION, ELSET=EB5, MATERIAL=Default-Steel
*SOLID SECTION, ELSET=EB6, MATERIAL=Default-Steel
*SOLID SECTION, ELSET=EB7, MATERIAL=Default-Steel
*SOLID SECTION, ELSET=EB8, MATERIAL=Default-Steel
*SOLID SECTION, ELSET=EB9, MATERIAL=Default-Steel
*SOLID SECTION, ELSET=EB10, MATERIAL=Default-Steel
*SOLID SECTION, ELSET=EB11, MATERIAL=Default-Steel
*SOLID SECTION, ELSET=EB12, MATERIAL=Default-Steel
**
*END PART
**
**
**
********************************** E N D   P A R T S **********************************
**
**
********************************** A S S E M B L Y ************************************
**
*ASSEMBLY, NAME=ASSEMBLY1
**
*INSTANCE, NAME=Part-Default_1, PART=Part-Default
*END INSTANCE
**
*END ASSEMBLY
**
**
**
*MATERIAL, NAME = Default-Steel
*ELASTIC, TYPE=ISOTROPIC
2.068000e+05, 2.900000e-01
*DENSITY
7.000000e-06
*CONDUCTIVITY,TYPE=ISO
4.500000e-02
*SPECIFIC HEAT
5.000000e+02
**
**
************************************** H I S T O R Y *************************************
**
*PREPRINT
**
**************************************** S T E P 1 ***************************************
*STEP,INC=100,NAME=Default Set
**
*STATIC
1, 1, 1e-05, 1
**
**
**
**
*END STEP
