*HEADING
cubit(battery_benchmark/battery_package/mesh/benchmark_mesh.inp): 03/26/2021: 11
version: 13.2
**
********************************** P A R T S **********************************
*PART, NAME=Part-Default
**
********************************** N O D E S **********************************
*NODE, NSET=ALLNODES
       1,   1.000000e+001,   1.800000e+001,   0.000000e+000
       2,  -1.000000e+001,   1.800000e+001,   0.000000e+000
       3,   9.000000e+000,   1.800000e+001,   0.000000e+000
       4,   8.000000e+000,   1.800000e+001,   0.000000e+000
       5,   7.000000e+000,   1.800000e+001,   0.000000e+000
       6,   6.000000e+000,   1.800000e+001,   0.000000e+000
       7,   5.000000e+000,   1.800000e+001,   0.000000e+000
       8,   4.000000e+000,   1.800000e+001,   0.000000e+000
       9,   3.000000e+000,   1.800000e+001,   0.000000e+000
      10,   2.000000e+000,   1.800000e+001,   0.000000e+000
      11,   1.000000e+000,   1.800000e+001,   0.000000e+000
      12,   0.000000e+000,   1.800000e+001,   0.000000e+000
      13,  -1.000000e+000,   1.800000e+001,   0.000000e+000
      14,  -2.000000e+000,   1.800000e+001,   0.000000e+000
      15,  -3.000000e+000,   1.800000e+001,   0.000000e+000
      16,  -4.000000e+000,   1.800000e+001,   0.000000e+000
      17,  -5.000000e+000,   1.800000e+001,   0.000000e+000
      18,  -6.000000e+000,   1.800000e+001,   0.000000e+000
      19,  -7.000000e+000,   1.800000e+001,   0.000000e+000
      20,  -8.000000e+000,   1.800000e+001,   0.000000e+000
** ... 1665 like lines cut
**
********************************** E L E M E N T S ****************************
*ELEMENT, TYPE=S4R, ELSET=EB11
     901,     550,     997,    1023,     580
     902,     997,     998,    1024,    1023
     903,     998,     999,    1025,    1024
     904,     999,    1000,    1026,    1025
     905,    1000,     996,    1002,    1026
     906,    1001,    1019,    1027,    1018
     907,    1019,    1020,    1028,    1027
     908,    1020,    1021,    1029,    1028
     909,    1021,    1022,    1030,    1029
     910,    1022,     581,     582,    1030
     911,    1002,    1003,    1031,    1026
     912,    1003,    1004,    1032,    1031
     913,    1004,    1005,    1033,    1032
     914,    1005,    1006,    1034,    1033
     915,    1006,    1007,    1035,    1034
     916,    1007,    1008,    1036,    1035
     917,    1008,    1009,    1037,    1036
     918,    1009,    1010,    1038,    1037
     919,    1010,    1011,    1039,    1038
     920,    1011,    1012,    1040,    1039
** ... 78 like lines cut
*ELEMENT, TYPE=S4R, ELSET=EB12
     999,     895,     899,    1135,    1134
    1000,     899,     898,    1136,    1135
    1001,     898,     897,    1137,    1136
    1002,     897,     896,    1138,    1137
    1003,     896,     592,    1139,    1138
    1004,     592,     611,    1140,    1139
    1005,     611,     610,    1141,    1140
    1006,     610,     609,    1142,    1141
    1007,     609,     608,    1143,    1142
    1008,     608,     607,    1144,    1143
    1009,     607,     606,    1145,    1144
    1010,     606,     605,    1146,    1145
    1011,     605,     604,    1147,    1146
    1012,     604,     603,    1148,    1147
    1013,     603,     602,    1149,    1148
    1014,     602,     601,    1150,    1149
    1015,     601,     600,    1151,    1150
    1016,     600,     599,    1152,    1151
    1017,     599,     598,    1153,    1152
    1018,     598,     597,    1154,    1153
** ... 580 like lines cut
*ELEMENT, TYPE=S4R, ELSET=EB6
       1,       1,       3,      85,      75
       2,       3,       4,      86,      85
       3,       4,       5,      87,      86
       4,       5,       6,      88,      87
       5,       6,       7,      89,      88
       6,       7,       8,      90,      89
       7,       8,       9,      91,      90
       8,       9,      10,      92,      91
       9,      10,      11,      93,      92
      10,      11,      12,      94,      93
      11,      12,      13,      95,      94
      12,      13,      14,      96,      95
      13,      14,      15,      97,      96
      14,      15,      16,      98,      97
      15,      16,      17,      99,      98
      16,      17,      18,     100,      99
      17,      18,      19,     101,     100
      18,      19,      20,     102,     101
      19,      20,      21,     103,     102
      20,      21,       2,      32,     103
** ... 283 like lines cut
*ELEMENT, TYPE=S4R, ELSET=EB7
     304,      44,     348,     374,      74
     305,     348,     349,     375,     374
     306,     349,     350,     376,     375
     307,     350,     351,     377,     376
     308,     351,     347,     353,     377
     309,     352,     370,     378,     369
     310,     370,     371,     379,     378
     311,     371,     372,     380,     379
     312,     372,     373,     381,     380
     313,     373,       1,      75,     381
     314,     353,     354,     382,     377
     315,     354,     355,     383,     382
     316,     355,     356,     384,     383
     317,     356,     357,     385,     384
     318,     357,     358,     386,     385
     319,     358,     359,     387,     386
     320,     359,     360,     388,     387
     321,     360,     361,     389,     388
     322,     361,     362,     390,     389
     323,     362,     363,     391,     390
** ... 78 like lines cut
*ELEMENT, TYPE=S4R, ELSET=EB8
     402,       2,     449,     475,      32
     403,     449,     450,     476,     475
     404,     450,     451,     477,     476
     405,     451,     452,     478,     477
     406,     452,     448,     454,     478
     407,     453,     471,     479,     470
     408,     471,     472,     480,     479
     409,     472,     473,     481,     480
     410,     473,     474,     482,     481
     411,     474,      33,      34,     482
     412,     454,     455,     483,     478
     413,     455,     456,     484,     483
     414,     456,     457,     485,     484
     415,     457,     458,     486,     485
     416,     458,     459,     487,     486
     417,     459,     460,     488,     487
     418,     460,     461,     489,     488
     419,     461,     462,     490,     489
     420,     462,     463,     491,     490
     421,     463,     464,     492,     491
** ... 78 like lines cut
*ELEMENT, TYPE=S4R, ELSET=EB9
     500,     549,     551,     633,     623
     501,     551,     552,     634,     633
     502,     552,     553,     635,     634
     503,     553,     554,     636,     635
     504,     554,     555,     637,     636
     505,     555,     556,     638,     637
     506,     556,     557,     639,     638
     507,     557,     558,     640,     639
     508,     558,     559,     641,     640
     509,     559,     560,     642,     641
     510,     560,     561,     643,     642
     511,     561,     562,     644,     643
     512,     562,     563,     645,     644
     513,     563,     564,     646,     645
     514,     564,     565,     647,     646
     515,     565,     566,     648,     647
     516,     566,     567,     649,     648
     517,     567,     568,     650,     649
     518,     568,     569,     651,     650
     519,     569,     550,     580,     651
** ... 283 like lines cut
*ELEMENT, TYPE=S4R, ELSET=EB10
     803,     592,     896,     922,     622
     804,     896,     897,     923,     922
     805,     897,     898,     924,     923
     806,     898,     899,     925,     924
     807,     899,     895,     901,     925
     808,     900,     918,     926,     917
     809,     918,     919,     927,     926
     810,     919,     920,     928,     927
     811,     920,     921,     929,     928
     812,     921,     549,     623,     929
     813,     901,     902,     930,     925
     814,     902,     903,     931,     930
     815,     903,     904,     932,     931
     816,     904,     905,     933,     932
     817,     905,     906,     934,     933
     818,     906,     907,     935,     934
     819,     907,     908,     936,     935
     820,     908,     909,     937,     936
     821,     909,     910,     938,     937
     822,     910,     911,     939,     938
** ... 78 like lines cut
**
********************************** P R O P E R T I E S ************************
*SHELL SECTION, ELSET=EB11, SECTION INTEGRATION=SIMPSON, MATERIAL=Default-Steel
1.000000e+000
*SHELL SECTION, ELSET=EB12, SECTION INTEGRATION=SIMPSON, MATERIAL=Default-Steel
1.000000e+000
*SHELL SECTION, ELSET=EB6, SECTION INTEGRATION=SIMPSON, MATERIAL=Default-Steel
1.000000e+000
*SHELL SECTION, ELSET=EB7, SECTION INTEGRATION=SIMPSON, MATERIAL=Default-Steel
1.000000e+000
*SHELL SECTION, ELSET=EB8, SECTION INTEGRATION=SIMPSON, MATERIAL=Default-Steel
1.000000e+000
*SHELL SECTION, ELSET=EB9, SECTION INTEGRATION=SIMPSON, MATERIAL=Default-Steel
1.000000e+000
*SHELL SECTION, ELSET=EB10, SECTION INTEGRATION=SIMPSON, MATERIAL=Default-Steel
1.000000e+000
**
*END PART
**
**
**
********************************** E N D   P A R T S **********************************
**
**
********************************** A S S E M B L Y ************************************
**
*ASSEMBLY, NAME=ASSEMBLY1
**
*INSTANCE, NAME=Part-Default_1, PART=Part-Default
*END INSTANCE
**
*END ASSEMBLY
**
**
**
*MATERIAL, NAME = Default-Steel
*ELASTIC, TYPE=ISOTROPIC
2.068000e+005, 2.900000e-001
*DENSITY
7.000000e-006
*CONDUCTIVITY,TYPE=ISO
4.500000e-002
*SPECIFIC HEAT
5.000000e+002
**
**
************************************** H I S T O R Y *************************************
**
*PREPRINT
**
**************************************** S T E P 1 ***************************************
*STEP,INC=100,NAME=Default Set
**
*STATIC
1, 1, 1e-005, 1
**
**
**
**
*END STEP
