*HEADING
cubit(/home/wzhenlin/workspace/cubitMesh/2D/2D_R10_binder.inp): 01/14/2018: 16:0
version: 13.2
**
********************************** P A R T S **********************************
*PART, NAME=Part-Default
**
********************************** N O D E S **********************************
*NODE, NSET=ALLNODES
       1,    6.614378e+00,    2.350000e+01,    0.000000e+00
       2,    8.351647e+00,    2.150000e+01,    0.000000e+00
       3,    7.251830e+00,    2.288556e+01,    0.000000e+00
       4,    7.832437e+00,    2.221715e+01,    0.000000e+00
       5,    1.000000e+01,    1.600000e+01,    0.000000e+00
       6,    8.845334e+00,    2.066477e+01,    0.000000e+00
       7,    9.255757e+00,    1.978563e+01,    0.000000e+00
       8,    9.579052e+00,    1.887085e+01,    0.000000e+00
       9,    9.812175e+00,    1.792905e+01,    0.000000e+00
      10,    9.952933e+00,    1.696908e+01,    0.000000e+00
      11,    1.300000e+01,    1.600000e+01,    0.000000e+00
      12,    1.225000e+01,    1.600000e+01,    0.000000e+00
      13,    1.150000e+01,    1.600000e+01,    0.000000e+00
      14,    1.075000e+01,    1.600000e+01,    0.000000e+00
      15,    1.300000e+01,    2.350000e+01,    0.000000e+00
      16,    1.300000e+01,    1.683333e+01,    0.000000e+00
      17,    1.300000e+01,    1.766667e+01,    0.000000e+00
      18,    1.300000e+01,    1.850000e+01,    0.000000e+00
      19,    1.300000e+01,    1.933333e+01,    0.000000e+00
      20,    1.300000e+01,    2.016667e+01,    0.000000e+00
** ... 6820 like lines cut
**
********************************** E L E M E N T S ****************************
*ELEMENT, TYPE=S4R, ELSET=EB128
    4035,    2099,    2190,    4274,    4139
    4036,    2190,    2191,    4275,    4274
    4037,    2191,    2189,    4273,    4275
    4038,    4139,    4274,    4276,    4140
    4039,    4274,    4275,    4277,    4276
    4040,    4275,    4273,    4272,    4277
    4041,    4140,    4276,    4278,    4141
    4042,    4276,    4277,    4279,    4278
    4043,    4277,    4272,    4271,    4279
    4044,    4141,    4278,    4280,    4142
    4045,    4278,    4279,    4281,    4280
    4046,    4279,    4271,    4270,    4281
    4047,    4142,    4280,    4282,    4143
    4048,    4280,    4281,    4283,    4282
    4049,    4281,    4270,    4269,    4283
    4050,    4143,    4282,    4284,    4144
    4051,    4282,    4283,    4285,    4284
    4052,    4283,    4269,    4268,    4285
    4053,    4144,    4284,    4286,    4145
    4054,    4284,    4285,    4287,    4286
** ... 28 like lines cut
*ELEMENT, TYPE=S4R, ELSET=EB129
    4083,    2235,    4259,    4304,    2240
    4084,    4259,    4260,    4305,    4304
    4085,    4260,    4261,    4306,    4305
    4086,    4261,    4262,    4307,    4306
    4087,    4262,    4263,    4308,    4307
    4088,    4263,    4264,    4309,    4308
    4089,    4264,    4265,    4310,    4309
    4090,    4265,    4266,    4311,    4310
    4091,    4266,    4267,    4312,    4311
    4092,    4267,    4268,    4313,    4312
    4093,    4268,    4269,    4314,    4313
    4094,    4269,    4270,    4315,    4314
    4095,    4270,    4271,    4316,    4315
    4096,    4271,    4272,    4317,    4316
    4097,    4272,    4273,    4318,    4317
    4098,    4273,    2189,    2205,    4318
    4099,    2240,    4304,    4319,    2239
    4100,    4304,    4305,    4320,    4319
    4101,    4305,    4306,    4321,    4320
    4102,    4306,    4307,    4322,    4321
** ... 76 like lines cut
*ELEMENT, TYPE=S4R, ELSET=EB6
       1,       1,       3,      27,      26
       2,       3,       4,      28,      27
       3,       4,       2,      29,      28
       4,       2,       6,      30,      29
       5,       6,       7,      31,      30
       6,       7,       8,      32,      31
       7,       8,       9,      33,      32
       8,       9,      10,      34,      33
       9,      10,       5,      14,      34
      10,      26,      27,      35,      25
      11,      27,      28,      36,      35
      12,      28,      29,      37,      36
      13,      29,      30,      38,      37
      14,      30,      31,      39,      38
      15,      31,      32,      40,      39
      16,      32,      33,      41,      40
      17,      33,      34,      42,      41
      18,      34,      14,      13,      42
      19,      25,      35,      43,      24
      20,      35,      36,      44,      43
** ... 16 like lines cut
*ELEMENT, TYPE=S4R, ELSET=EB7
      37,      51,      53,      77,      74
      38,      53,      54,      78,      77
      39,      54,      55,      79,      78
      40,      55,      56,      80,      79
      41,      56,      57,      81,      80
      42,      57,      52,      82,      81
      43,      52,      59,      83,      82
      44,      59,      60,      84,      83
      45,      60,      58,      62,      84
      46,      74,      77,      85,      75
      47,      77,      78,      86,      85
      48,      78,      79,      87,      86
      49,      79,      80,      88,      87
      50,      80,      81,      89,      88
      51,      81,      82,      90,      89
      52,      82,      83,      91,      90
      53,      83,      84,      92,      91
      54,      84,      62,      63,      92
      55,      75,      85,      93,      76
      56,      85,      86,      94,      93
** ... 16 like lines cut
*ELEMENT, TYPE=S4R, ELSET=EB9
      73,       1,      26,     122,     102
      74,      26,      25,     123,     122
      75,      25,      24,     124,     123
      76,      24,      15,     112,     124
      77,     102,     122,     125,     103
      78,     122,     123,     126,     125
      79,     123,     124,     127,     126
      80,     124,     112,     111,     127
      81,     103,     125,     128,     101
      82,     125,     126,     129,     128
      83,     126,     127,     130,     129
      84,     127,     111,     110,     130
      85,     101,     128,     131,     117
      86,     128,     129,     132,     131
      87,     129,     130,     133,     132
      88,     130,     110,     109,     133
      89,     117,     131,     134,     118
      90,     131,     132,     135,     134
      91,     132,     133,     136,     135
      92,     133,     109,     108,     136
** ... 16 like lines cut
*ELEMENT, TYPE=S4R, ELSET=EB10
     109,     146,     154,     167,     148
     110,     154,     155,     168,     167
     111,     155,     156,     169,     168
     112,     156,     153,     164,     169
     113,     148,     167,     170,     149
     114,     167,     168,     171,     170
     115,     168,     169,     172,     171
     116,     169,     164,     163,     172
     117,     149,     170,     173,     150
     118,     170,     171,     174,     173
     119,     171,     172,     175,     174
     120,     172,     163,     162,     175
     121,     150,     173,     176,     151
     122,     173,     174,     177,     176
     123,     174,     175,     178,     177
     124,     175,     162,     161,     178
     125,     151,     176,     179,     152
     126,     176,     177,     180,     179
     127,     177,     178,     181,     180
     128,     178,     161,     160,     181
** ... 16 like lines cut
*ELEMENT, TYPE=S4R, ELSET=EB11
     145,      11,      12,     261,     260
     146,      12,      13,     262,     261
     147,      13,      14,     263,     262
     148,      14,       5,     264,     263
     149,       5,     191,     265,     264
     150,     191,     192,     266,     265
     151,     192,     193,     267,     266
     152,     193,     194,     268,     267
     153,     194,     195,     269,     268
     154,     195,     196,     270,     269
     155,     196,     197,     271,     270
     156,     197,     198,     272,     271
     157,     198,     199,     273,     272
     158,     199,     200,     274,     273
     159,     200,     201,     275,     274
     160,     201,     202,     276,     275
     161,     202,     203,     277,     276
     162,     203,     204,     278,     277
     163,     204,     205,     279,     278
     164,     205,      51,     280,     279
** ... 364 like lines cut
*ELEMENT, TYPE=S4R, ELSET=EB12
     529,     606,     608,     627,     626
     530,     608,     609,     628,     627
     531,     609,     607,     629,     628
     532,     607,     610,     630,     629
     533,     610,     611,     631,     630
     534,     611,     612,     632,     631
     535,     612,     613,     633,     632
     536,     613,     614,     634,     633
     537,     614,     113,     116,     634
     538,     626,     627,     635,     625
     539,     627,     628,     636,     635
     540,     628,     629,     637,     636
     541,     629,     630,     638,     637
     542,     630,     631,     639,     638
     543,     631,     632,     640,     639
     544,     632,     633,     641,     640
     545,     633,     634,     642,     641
     546,     634,     116,     115,     642
     547,     625,     635,     643,     624
     548,     635,     636,     644,     643
** ... 16 like lines cut
*ELEMENT, TYPE=S4R, ELSET=EB14
     565,     146,     652,     672,     154
     566,     652,     653,     673,     672
     567,     653,     654,     674,     673
     568,     654,     655,     675,     674
     569,     655,     656,     676,     675
     570,     656,     651,     677,     676
     571,     651,     658,     678,     677
     572,     658,     659,     679,     678
     573,     659,     657,     661,     679
     574,     154,     672,     680,     155
     575,     672,     673,     681,     680
     576,     673,     674,     682,     681
     577,     674,     675,     683,     682
     578,     675,     676,     684,     683
     579,     676,     677,     685,     684
     580,     677,     678,     686,     685
     581,     678,     679,     687,     686
     582,     679,     661,     662,     687
     583,     155,     680,     688,     156
     584,     680,     681,     689,     688
** ... 16 like lines cut
*ELEMENT, TYPE=S4R, ELSET=EB15
     601,     696,     704,     717,     698
     602,     704,     705,     718,     717
     603,     705,     706,     719,     718
     604,     706,     703,     714,     719
     605,     698,     717,     720,     699
     606,     717,     718,     721,     720
     607,     718,     719,     722,     721
     608,     719,     714,     713,     722
     609,     699,     720,     723,     700
     610,     720,     721,     724,     723
     611,     721,     722,     725,     724
     612,     722,     713,     712,     725
     613,     700,     723,     726,     701
     614,     723,     724,     727,     726
     615,     724,     725,     728,     727
     616,     725,     712,     711,     728
     617,     701,     726,     729,     702
     618,     726,     727,     730,     729
     619,     727,     728,     731,     730
     620,     728,     711,     710,     731
** ... 16 like lines cut
*ELEMENT, TYPE=S4R, ELSET=EB17
     637,     606,     626,     762,     742
     638,     626,     625,     763,     762
     639,     625,     624,     764,     763
     640,     624,     615,     752,     764
     641,     742,     762,     765,     743
     642,     762,     763,     766,     765
     643,     763,     764,     767,     766
     644,     764,     752,     751,     767
     645,     743,     765,     768,     741
     646,     765,     766,     769,     768
     647,     766,     767,     770,     769
     648,     767,     751,     750,     770
     649,     741,     768,     771,     757
     650,     768,     769,     772,     771
     651,     769,     770,     773,     772
     652,     770,     750,     749,     773
     653,     757,     771,     774,     758
     654,     771,     772,     775,     774
     655,     772,     773,     776,     775
     656,     773,     749,     748,     776
** ... 16 like lines cut
*ELEMENT, TYPE=S4R, ELSET=EB18
     673,     786,     788,     807,     806
     674,     788,     789,     808,     807
     675,     789,     787,     809,     808
     676,     787,     790,     810,     809
     677,     790,     791,     811,     810
     678,     791,     792,     812,     811
     679,     792,     793,     813,     812
     680,     793,     794,     814,     813
     681,     794,     753,     756,     814
     682,     806,     807,     815,     805
     683,     807,     808,     816,     815
     684,     808,     809,     817,     816
     685,     809,     810,     818,     817
     686,     810,     811,     819,     818
     687,     811,     812,     820,     819
     688,     812,     813,     821,     820
     689,     813,     814,     822,     821
     690,     814,     756,     755,     822
     691,     805,     815,     823,     804
     692,     815,     816,     824,     823
** ... 16 like lines cut
*ELEMENT, TYPE=S4R, ELSET=EB20
     709,     696,     832,     852,     704
     710,     832,     833,     853,     852
     711,     833,     834,     854,     853
     712,     834,     835,     855,     854
     713,     835,     836,     856,     855
     714,     836,     831,     857,     856
     715,     831,     838,     858,     857
     716,     838,     839,     859,     858
     717,     839,     837,     841,     859
     718,     704,     852,     860,     705
     719,     852,     853,     861,     860
     720,     853,     854,     862,     861
     721,     854,     855,     863,     862
     722,     855,     856,     864,     863
     723,     856,     857,     865,     864
     724,     857,     858,     866,     865
     725,     858,     859,     867,     866
     726,     859,     841,     842,     867
     727,     705,     860,     868,     706
     728,     860,     861,     869,     868
** ... 16 like lines cut
*ELEMENT, TYPE=S4R, ELSET=EB21
    6978,     899,    6594,    6596,     894
    6977,     883,     894,    6596,    5718
    6976,     886,    5718,    6596,    6594
    6975,     885,    4401,    6595,     898
     749,     878,     897,     900,     879
     750,     897,     898,     901,     900
     751,     898,     899,     902,     901
     752,     899,     894,     893,     902
     753,     879,     900,     903,     880
     754,     900,     901,     904,     903
     755,     901,     902,     905,     904
     756,     902,     893,     892,     905
     757,     880,     903,     906,     881
     758,     903,     904,     907,     906
     759,     904,     905,     908,     907
     760,     905,     892,     891,     908
     761,     881,     906,     909,     882
     762,     906,     907,     910,     909
     763,     907,     908,     911,     910
     764,     908,     891,     890,     911
** ... 24 like lines cut
*ELEMENT, TYPE=S4R, ELSET=EB23
     781,     786,     806,     942,     922
     782,     806,     805,     943,     942
     783,     805,     804,     944,     943
     784,     804,     795,     932,     944
     785,     922,     942,     945,     923
     786,     942,     943,     946,     945
     787,     943,     944,     947,     946
     788,     944,     932,     931,     947
     789,     923,     945,     948,     921
     790,     945,     946,     949,     948
     791,     946,     947,     950,     949
     792,     947,     931,     930,     950
     793,     921,     948,     951,     937
     794,     948,     949,     952,     951
     795,     949,     950,     953,     952
     796,     950,     930,     929,     953
     797,     937,     951,     954,     938
     798,     951,     952,     955,     954
     799,     952,     953,     956,     955
     800,     953,     929,     928,     956
** ... 24 like lines cut
*ELEMENT, TYPE=S4R, ELSET=EB24
    5639,    1006,    4668,    5731,    4467
    5653,     924,    5738,    5739,    5737
    5652,     934,    5737,    5739,    4450
    4912,     996,    5102,    5103,    4419
    4911,     995,    4419,    5103,    4707
    4922,    1005,    5104,    5106,    4466
    4921,    1006,    4466,    5106,    4669
    4920,     998,    4669,    5106,    4569
    5782,     990,    5839,    5842,    4571
    5780,     971,    5072,    5842,    5841
    5779,     970,    5841,    5842,    5839
    5651,    1010,    4450,    5739,    5734
    5650,     977,    4703,    5736,    5735
    5649,     976,    5735,    5736,    5734
    5648,    1010,    5734,    5736,    4679
    5643,    1007,    4672,    5733,    5729
    5642,     980,    4467,    5731,    5730
    5781,     991,    4571,    5842,    5072
    5640,    1007,    5729,    5731,    4668
    4919,     997,    4569,    5106,    5104
** ... 124 like lines cut
*ELEMENT, TYPE=S4R, ELSET=EB26
    5992,    1037,    4387,    5983,    5275
    6511,    1051,    4717,    6335,    5726
    5991,    1036,    5275,    5983,    5981
    5993,    1045,    4719,    5983,    4387
    6515,    1052,    4721,    6337,    6333
    6514,    1028,    5726,    6335,    6334
    6513,    1027,    6334,    6335,    6333
    6512,    1052,    6333,    6335,    4717
    6461,    1032,    5878,    6305,    5382
    6459,     876,    6303,    6305,    6304
    6054,    1034,    6027,    6028,    5978
    6053,    1035,    5978,    6028,    5271
    6052,    1015,    5271,    6028,    6026
    6051,    1014,    6026,    6028,    6027
    5994,    1044,    5981,    5983,    4719
    6526,    1024,    6338,    6342,    6341
    6525,    1020,    6341,    6342,    5580
    6460,    1012,    5382,    6305,    6303
    6523,    1055,    5714,    6342,    6338
    6522,    1025,    4394,    6340,    6339
** ... 124 like lines cut
*ELEMENT, TYPE=S4R, ELSET=EB27
    6432,    1093,    6175,    6285,    6276
    6431,    1092,    6276,    6285,    6282
    6424,    1070,    6280,    6281,    5872
    6425,    1069,    6177,    6281,    6280
    6430,    1075,    6283,    6284,    6180
    6434,    1095,    6282,    6285,    6184
    6415,    1089,    5025,    6277,    6271
    6433,    1096,    6184,    6285,    6175
    6429,    1095,    6180,    6284,    6282
    6427,    1057,    6272,    6284,    6283
    6426,    1094,    6278,    6281,    6177
    6419,    1090,    5869,    6279,    6275
    6418,    1092,    6271,    6277,    6276
    6417,    1093,    6276,    6277,    6275
    6416,    1090,    6275,    6277,    5025
    6414,    1057,    6273,    6274,    6272
    6413,    1092,    6272,    6274,    6271
    6428,    1092,    6282,    6284,    6272
    6411,    1062,    5862,    6274,    6273
    6278,    1099,    6185,    6187,    5574
** ... 124 like lines cut
*ELEMENT, TYPE=S4R, ELSET=EB29
    6491,    1118,    6290,    6324,    6323
    6501,    1139,    5004,    6328,    6327
    6492,    1134,    6321,    6324,    6290
    6500,    1136,    6327,    6328,    6295
    6499,    1135,    6295,    6328,    6325
    6485,    1135,    6318,    6319,    6296
    6484,    1132,    6296,    6319,    4607
    6483,    1131,    4607,    6319,    6289
    6482,    1101,    6316,    6317,    4600
    6480,    1125,    6315,    6317,    4664
    6506,    1139,    6327,    6330,    5008
    6505,    1107,    5008,    6330,    6329
    6504,    1108,    6329,    6330,    6299
    6503,    1136,    6299,    6330,    6327
    6502,    1138,    6325,    6328,    5004
    6490,    1128,    6315,    6320,    4605
    6489,    1129,    4605,    6320,    4594
    6481,    1128,    4600,    6317,    6315
    6487,    1125,    6309,    6320,    6315
    6486,    1134,    6289,    6319,    6318
** ... 124 like lines cut
*ELEMENT, TYPE=S4R, ELSET=EB45
    7023,    1178,    1160,    6619,    6617
     962,    1150,    1149,    1167,    1166
     963,    1149,    1148,    1168,    1167
    7028,    1152,    4548,    6622,    6620
    7027,    1153,    6123,    6621,    1177
     966,    1166,    1167,    1170,    1169
     967,    1167,    1168,    1171,    1170
    7020,    1164,    1175,    6618,    4948
    7019,    1165,    4948,    6618,    6617
     970,    1169,    1170,    1173,    1172
     971,    1170,    1171,    1174,    1173
    7022,    1165,    6617,    6619,    4952
    7021,    1178,    6617,    6618,    1175
     974,    1172,    1173,    1176,    1175
     975,    1173,    1174,    1177,    1176
    7030,    1180,    6620,    6622,    1158
    7029,    1151,    1158,    6622,    4548
     978,    1175,    1176,    1179,    1178
     979,    1176,    1177,    1180,    1179
    7026,    1180,    1177,    6621,    6620
** ... 28 like lines cut
*ELEMENT, TYPE=S4R, ELSET=EB47
    7002,    1184,    1187,    6609,    6478
     986,    1148,    1149,    1187,    1186
     987,    1149,    1150,    1188,    1187
    7003,    1188,    6608,    6609,    1187
    7006,    1147,    6483,    6610,    1150
    7005,    1188,    1150,    6610,    6608
    7004,    1185,    6608,    6610,    6483
    6991,    1181,    5112,    6604,    6603
    6992,    1146,    1148,    6604,    5112
    6993,    1186,    6603,    6604,    1148
    6994,    1182,    6467,    6606,    6472
    6995,    1181,    6603,    6606,    6467
    6996,    1186,    6605,    6606,    6603
    6997,    1183,    6472,    6606,    6605
    6998,    1183,    6605,    6607,    6475
    6999,    1186,    1187,    6607,    6605
    7000,    1184,    6475,    6607,    1187
    7001,    1185,    6478,    6609,    6608
*ELEMENT, TYPE=S4R, ELSET=EB49
    7124,    1217,    1214,    6670,    6669
     993,    1193,    1192,    1210,    1209
     994,    1192,    1191,    1211,    1210
    7123,    1197,    6669,    6670,    5786
    7125,    1198,    5786,    6670,    1214
     997,    1209,    1210,    1213,    1212
     998,    1210,    1211,    1214,    1213
    7134,    1223,    6672,    6674,    1201
    7133,    1194,    1201,    6674,    4956
    1001,    1212,    1213,    1216,    1215
    1002,    1213,    1214,    1217,    1216
    7132,    1195,    4956,    6674,    6672
    7128,    1217,    6669,    6671,    1220
    1005,    1215,    1216,    1219,    1218
    1006,    1216,    1217,    1220,    1219
    7127,    1196,    1220,    6671,    5779
    7126,    1197,    5779,    6671,    6669
    1009,    1218,    1219,    1222,    1221
    1010,    1219,    1220,    1223,    1222
    7131,    1196,    5352,    6673,    1220
** ... 28 like lines cut
*ELEMENT, TYPE=S4R, ELSET=EB51
    7103,    1266,    1193,    6659,    6657
    1041,    1191,    1192,    1265,    1264
    1042,    1192,    1193,    1266,    1265
    7102,    1263,    6657,    6659,    6415
    7101,    1266,    6657,    6658,    1265
    7104,    1190,    6415,    6659,    1193
    7100,    1262,    1265,    6658,    5328
    7089,    1259,    6259,    6653,    6652
    7090,    1189,    1191,    6653,    6259
    7091,    1264,    6652,    6653,    1191
    7092,    1260,    6263,    6655,    5956
    7093,    1259,    6652,    6655,    6263
    7094,    1264,    6654,    6655,    6652
    7095,    1261,    5956,    6655,    6654
    7096,    1261,    6654,    6656,    5963
    7097,    1264,    1265,    6656,    6654
    7098,    1262,    5963,    6656,    1265
    7099,    1263,    5328,    6658,    6657
*ELEMENT, TYPE=S4R, ELSET=EB53
    7072,    1240,    1247,    6644,    5762
    1017,    1228,    1227,    1245,    1244
    1018,    1227,    1226,    1246,    1245
    7071,    1241,    5762,    6644,    6643
    7082,    1235,    4554,    6648,    1238
    1021,    1244,    1245,    1248,    1247
    1022,    1245,    1246,    1249,    1248
    7081,    1256,    1238,    6648,    6646
    7075,    1250,    1253,    6645,    6643
    1025,    1247,    1248,    1251,    1250
    1026,    1248,    1249,    1252,    1251
    7074,    1241,    6643,    6645,    5767
    7073,    1250,    6643,    6644,    1247
    1029,    1250,    1251,    1254,    1253
    1030,    1251,    1252,    1255,    1254
    7080,    1243,    6646,    6648,    4554
    7079,    1256,    6646,    6647,    1253
    1033,    1253,    1254,    1257,    1256
    1034,    1254,    1255,    1258,    1257
    7078,    1242,    1253,    6647,    5771
** ... 28 like lines cut
*ELEMENT, TYPE=S4R, ELSET=EB55
    7052,    1272,    6631,    6633,    1226
    1048,    1226,    1227,    1273,    1272
    1049,    1227,    1228,    1274,    1273
    7048,    1272,    6629,    6632,    6631
    7049,    1269,    5753,    6632,    6629
    7051,    1224,    1226,    6633,    5375
    7050,    1267,    5375,    6633,    6631
    7037,    1271,    6626,    6627,    4897
    7038,    1274,    1228,    6627,    6626
    7039,    1225,    4897,    6627,    1228
    7040,    1271,    5760,    6628,    6626
    7041,    1270,    1273,    6628,    5760
    7042,    1274,    6626,    6628,    1273
    7043,    1269,    6629,    6630,    5757
    7044,    1272,    1273,    6630,    6629
    7045,    1270,    5757,    6630,    1273
    7046,    1268,    5742,    6632,    5753
    7047,    1267,    6631,    6632,    5742
*ELEMENT, TYPE=S4R, ELSET=EB57
    7185,    1289,    6699,    6700,    1307
    1055,    1279,    1278,    1296,    1295
    1056,    1278,    1277,    1297,    1296
    7175,    1298,    1301,    6695,    6693
    7174,    1291,    6693,    6695,    5341
    1059,    1295,    1296,    1299,    1298
    1060,    1296,    1297,    1300,    1299
    7180,    1293,    6696,    6698,    5349
    7179,    1304,    6696,    6697,    1301
    1063,    1298,    1299,    1302,    1301
    1064,    1299,    1300,    1303,    1302
    7178,    1292,    1301,    6697,    5345
    7177,    1293,    5345,    6697,    6696
    1067,    1301,    1302,    1305,    1304
    1068,    1302,    1303,    1306,    1305
    7176,    1292,    5341,    6695,    1301
    7184,    1294,    1307,    6700,    4528
    1071,    1304,    1305,    1308,    1307
    1072,    1305,    1306,    1309,    1308
    7183,    1286,    4528,    6700,    6699
** ... 28 like lines cut
*ELEMENT, TYPE=S4R, ELSET=EB59
    7150,    1275,    6682,    6683,    6011
    1127,    1277,    1278,    1386,    1385
    1128,    1278,    1279,    1387,    1386
    7151,    1277,    1385,    6683,    6682
    7152,    1380,    6011,    6683,    1385
    7149,    1382,    6019,    6681,    1385
    7148,    1380,    1385,    6681,    6014
    7138,    1276,    4902,    6677,    6675
    7139,    1384,    1387,    6677,    4902
    7140,    1279,    6675,    6677,    1387
    7141,    1383,    6678,    6679,    5332
    7142,    1386,    1387,    6679,    6678
    7143,    1384,    5332,    6679,    1387
    7144,    1383,    6022,    6680,    6678
    7145,    1382,    1385,    6680,    6022
    7146,    1386,    6678,    6680,    1385
    7147,    1381,    6014,    6681,    6019
*ELEMENT, TYPE=S4R, ELSET=EB61
    7228,    1317,    6722,    6723,    5774
    1079,    1314,    1313,    1331,    1330
    1080,    1313,    1312,    1332,    1331
    7226,    1329,    1342,    6721,    6118
    7225,    1321,    6118,    6721,    6720
    1083,    1330,    1331,    1334,    1333
    1084,    1331,    1332,    1335,    1334
    7230,    1318,    5774,    6723,    1338
    7229,    1341,    1338,    6723,    6722
    1087,    1333,    1334,    1337,    1336
    1088,    1334,    1335,    1338,    1337
    7236,    1316,    6114,    6726,    1344
    7235,    1322,    1344,    6726,    6725
    1091,    1336,    1337,    1340,    1339
    1092,    1337,    1338,    1341,    1340
    7234,    1315,    6725,    6726,    6114
    7233,    1341,    6722,    6724,    1344
    1095,    1339,    1340,    1343,    1342
    1096,    1340,    1341,    1344,    1343
    7232,    1316,    1344,    6724,    5992
** ... 28 like lines cut
*ELEMENT, TYPE=S4R, ELSET=EB63
    7205,    1394,    1395,    6710,    6708
    1134,    1312,    1313,    1394,    1393
    1135,    1313,    1314,    1395,    1394
    7208,    1392,    1395,    6712,    5435
    7209,    1314,    6711,    6712,    1395
    7206,    1392,    5431,    6710,    1395
    7207,    1311,    5435,    6712,    6711
    7195,    1310,    6704,    6706,    6251
    7196,    1312,    1393,    6706,    6704
    7197,    1388,    6251,    6706,    1393
    7198,    1389,    6255,    6707,    6352
    7199,    1388,    1393,    6707,    6255
    7200,    1390,    6352,    6707,    1393
    7201,    1391,    6355,    6709,    6708
    7202,    1390,    1393,    6709,    6355
    7203,    1394,    6708,    6709,    1393
    7204,    1391,    6708,    6710,    5431
*ELEMENT, TYPE=S4R, ELSET=EB65
    7463,    1377,    1359,    6840,    6838
    1103,    1349,    1348,    1366,    1365
    1104,    1348,    1347,    1367,    1366
    7453,    1362,    6400,    6836,    6835
    7464,    1356,    6111,    6840,    1359
    1107,    1365,    1366,    1369,    1368
    1108,    1366,    1367,    1370,    1369
    7459,    1364,    5988,    6839,    6838
    7458,    1363,    5984,    6837,    1374
    1111,    1368,    1369,    1372,    1371
    1112,    1369,    1370,    1373,    1372
    7457,    1371,    1374,    6837,    6835
    7456,    1362,    6835,    6837,    5984
    1115,    1371,    1372,    1375,    1374
    1116,    1372,    1373,    1376,    1375
    7455,    1371,    6835,    6836,    1368
    7454,    1361,    1368,    6836,    6400
    1119,    1374,    1375,    1378,    1377
    1120,    1375,    1376,    1379,    1378
    7462,    1364,    6838,    6840,    6111
** ... 28 like lines cut
*ELEMENT, TYPE=S4R, ELSET=EB67
    7432,    1396,    6372,    6825,    6823
    1141,    1347,    1348,    1402,    1401
    1142,    1348,    1349,    1403,    1402
    7434,    1401,    6823,    6825,    1347
    7430,    1401,    6821,    6824,    6823
    7433,    1345,    1347,    6825,    6372
    7431,    1398,    6380,    6824,    6821
    7419,    1400,    6818,    6819,    6391
    7420,    1403,    1349,    6819,    6818
    7421,    1346,    6391,    6819,    1349
    7422,    1400,    6386,    6820,    6818
    7423,    1399,    1402,    6820,    6386
    7424,    1403,    6818,    6820,    1402
    7425,    1398,    6821,    6822,    6383
    7426,    1401,    1402,    6822,    6821
    7427,    1399,    6383,    6822,    1402
    7428,    1397,    6375,    6824,    6380
    7429,    1396,    6823,    6824,    6375
*ELEMENT, TYPE=S4R, ELSET=EB68
    6748,    1185,    6479,    6480,    6478
    6747,    1184,    6478,    6480,    6476
    6746,    1509,    6473,    6477,    5944
    6678,    1491,    4536,    6439,    6438
    6677,    1634,    6438,    6439,    6437
    6676,    1461,    6437,    6439,    4833
    6675,    1460,    4833,    6439,    4536
    6686,    1635,    6440,    6445,    6444
    6685,    1636,    6444,    6445,    6443
    6683,    1462,    5257,    6445,    6440
    6682,    1634,    6437,    6442,    6441
    6681,    1635,    6441,    6442,    6440
    6680,    1462,    6440,    6442,    4836
    6679,    1461,    4836,    6442,    6437
    6547,    1485,    6059,    6358,    5145
    6546,    1580,    6353,    6356,    5420
    6545,    1581,    5420,    6356,    5428
    6684,    1463,    6443,    6445,    5257
    6543,    1390,    6355,    6356,    6353
    6542,    1579,    6350,    6354,    5416
** ... 1452 like lines cut
*ELEMENT, TYPE=S4R, ELSET=EB70
    6639,    1741,    6413,    6414,    5844
    6340,    1768,    4481,    6225,    5394
    6775,    1757,    6224,    6495,    5890
    6341,    1776,    6224,    6225,    4481
    6771,    1775,    5389,    6492,    4476
    6642,    1760,    5844,    6414,    5396
    6776,    1776,    6493,    6495,    6224
    6778,    1748,    5890,    6495,    6494
    6777,    1756,    6494,    6495,    6493
    6773,    1434,    6169,    6492,    5172
    6772,    1435,    5172,    6492,    5389
    6336,    1782,    4447,    6223,    4472
    6335,    1781,    4472,    6223,    4440
    6638,    1762,    5385,    6412,    6411
    6637,    1763,    6411,    6412,    5402
    6641,    1761,    5396,    6414,    5387
    6640,    1742,    5387,    6414,    6413
    6774,    1783,    4476,    6492,    6169
    6342,    1757,    4800,    6225,    6224
    6798,    1769,    5397,    6507,    4483
** ... 124 like lines cut
*ELEMENT, TYPE=S4R, ELSET=EB71
    6790,    1808,    6499,    6503,    5703
    6789,    1809,    5703,    6503,    6490
    6239,    1811,    6087,    6163,    5710
    6241,    1820,    5792,    6163,    6162
    6240,    1812,    6162,    6163,    6087
    6242,    1819,    5710,    6163,    5792
    6250,    1456,    4517,    6167,    5799
    6249,    1821,    5799,    6167,    6166
    6248,    1813,    6166,    6167,    5468
    6783,    1787,    6498,    6501,    6500
    6770,    1809,    6490,    6491,    5706
    6769,    1810,    5706,    6491,    6083
    6768,    1784,    6083,    6491,    6489
    6767,    1789,    6489,    6491,    6490
    6766,    1820,    6162,    6488,    5796
    6765,    1795,    5796,    6488,    4774
    6247,    1455,    5468,    6167,    4517
    6243,    1826,    5790,    6165,    5217
    6245,    1798,    6164,    6165,    5813
    6244,    1827,    5813,    6165,    5790
** ... 124 like lines cut
*ELEMENT, TYPE=S4R, ELSET=EB73
    5864,    1851,    5896,    5897,    4798
    5863,    1850,    4798,    5897,    5893
    5862,    1831,    5894,    5895,    4809
    5302,    1864,    5461,    5464,    4927
    5301,    1836,    4927,    5464,    5463
    5300,    1837,    5463,    5464,    5097
    5299,    1861,    5097,    5464,    5461
    5861,    1853,    4809,    5895,    5893
    5860,    1850,    5893,    5895,    4712
    5858,    1852,    4801,    5892,    4804
    5857,    1840,    4804,    5892,    5891
    5739,    1873,    4644,    5810,    5805
    5738,    1843,    5457,    5807,    5806
    5737,    1842,    5806,    5807,    5805
    5736,    1873,    5805,    5807,    4641
    5735,    1872,    4641,    5807,    5457
    5734,    1841,    5803,    5804,    5802
    5859,    1830,    4712,    5895,    5894
    5732,    1871,    5459,    5804,    4633
    5731,    1849,    4633,    5804,    5803
** ... 124 like lines cut
*ELEMENT, TYPE=S4R, ELSET=EB74
    5475,    1894,    5596,    5609,    5608
    6279,    1874,    6188,    6191,    6190
    5473,    1885,    5605,    5606,    5604
    5472,    1886,    5604,    5606,    5593
    5471,    1915,    5593,    5606,    5601
    5476,    1916,    4775,    5609,    5596
    6634,    1877,    6408,    6409,    4737
    6633,    1898,    4737,    6409,    5888
    6632,    1895,    5888,    6409,    6189
    6630,    1897,    6403,    6407,    4733
    6629,    1892,    4733,    6407,    6406
    6628,    1881,    6406,    6407,    6405
    6627,    1884,    6405,    6407,    6403
    6626,    1896,    5080,    6404,    4728
    6625,    1897,    4728,    6404,    6403
    6624,    1884,    6403,    6404,    6402
    6623,    1883,    6402,    6404,    5080
    6631,    1876,    6189,    6409,    6408
    6457,    1793,    5815,    6302,    6301
    6456,    1885,    6301,    6302,    5605
** ... 124 like lines cut
*ELEMENT, TYPE=S4R, ELSET=EB76
    1659,    1919,    1921,    1940,    1939
    1660,    1921,    1922,    1941,    1940
    1661,    1922,    1920,    1942,    1941
    1662,    1920,    1923,    1943,    1942
    1663,    1923,    1924,    1944,    1943
    1664,    1924,    1925,    1945,    1944
    1665,    1925,    1926,    1946,    1945
    1666,    1926,    1927,    1947,    1946
    7411,    1832,    1929,    6814,    5809
    1668,    1939,    1940,    1948,    1938
    1669,    1940,    1941,    1949,    1948
    1670,    1941,    1942,    1950,    1949
    1671,    1942,    1943,    1951,    1950
    1672,    1943,    1944,    1952,    1951
    1673,    1944,    1945,    1953,    1952
    1674,    1945,    1946,    1954,    1953
    1675,    1946,    1947,    1955,    1954
    7412,    1963,    6812,    6814,    1929
    1677,    1938,    1948,    1956,    1937
    1678,    1948,    1949,    1957,    1956
** ... 24 like lines cut
*ELEMENT, TYPE=S4R, ELSET=EB77
    7406,    1881,    6405,    6811,    1984
    1696,    1965,    1966,    1986,    1985
    1697,    1966,    1967,    1987,    1986
    1698,    1967,    1968,    1988,    1987
    1699,    1968,    1969,    1989,    1988
    1700,    1969,    1964,    1990,    1989
    1701,    1964,    1971,    1991,    1990
    1702,    1971,    1972,    1992,    1991
    1703,    1972,    1970,    1974,    1992
    7405,    2001,    1984,    6811,    6809
    1705,    1985,    1986,    1994,    1993
    1706,    1986,    1987,    1995,    1994
    1707,    1987,    1988,    1996,    1995
    1708,    1988,    1989,    1997,    1996
    1709,    1989,    1990,    1998,    1997
    1710,    1990,    1991,    1999,    1998
    1711,    1991,    1992,    2000,    1999
    1712,    1992,    1974,    1975,    2000
    7404,    1884,    6809,    6811,    6405
    1714,    1993,    1994,    2002,    2001
** ... 24 like lines cut
*ELEMENT, TYPE=S4R, ELSET=EB79
    1731,    1919,    1939,    2030,    2010
    1732,    1939,    1938,    2031,    2030
    1733,    1938,    1937,    2032,    2031
    1734,    1937,    1928,    2020,    2032
    1735,    2010,    2030,    2033,    2011
    1736,    2030,    2031,    2034,    2033
    1737,    2031,    2032,    2035,    2034
    1738,    2032,    2020,    2019,    2035
    1739,    2011,    2033,    2036,    2009
    1740,    2033,    2034,    2037,    2036
    1741,    2034,    2035,    2038,    2037
    1742,    2035,    2019,    2018,    2038
    1743,    2009,    2036,    2039,    2025
    1744,    2036,    2037,    2040,    2039
    1745,    2037,    2038,    2041,    2040
    1746,    2038,    2018,    2017,    2041
    1747,    2025,    2039,    2042,    2026
    1748,    2039,    2040,    2043,    2042
    1749,    2040,    2041,    2044,    2043
    1750,    2041,    2017,    2016,    2044
** ... 16 like lines cut
*ELEMENT, TYPE=S4R, ELSET=EB80
    1767,    2054,    2062,    2075,    2056
    1768,    2062,    2063,    2076,    2075
    1769,    2063,    2064,    2077,    2076
    1770,    2064,    2061,    2072,    2077
    1771,    2056,    2075,    2078,    2057
    1772,    2075,    2076,    2079,    2078
    1773,    2076,    2077,    2080,    2079
    1774,    2077,    2072,    2071,    2080
    1775,    2057,    2078,    2081,    2058
    1776,    2078,    2079,    2082,    2081
    1777,    2079,    2080,    2083,    2082
    1778,    2080,    2071,    2070,    2083
    1779,    2058,    2081,    2084,    2059
    1780,    2081,    2082,    2085,    2084
    1781,    2082,    2083,    2086,    2085
    1782,    2083,    2070,    2069,    2086
    1783,    2059,    2084,    2087,    2060
    1784,    2084,    2085,    2088,    2087
    1785,    2085,    2086,    2089,    2088
    1786,    2086,    2069,    2068,    2089
** ... 16 like lines cut
*ELEMENT, TYPE=S4R, ELSET=EB82
    1803,    2099,    2101,    2120,    2119
    1804,    2101,    2102,    2121,    2120
    1805,    2102,    2100,    2122,    2121
    1806,    2100,    2103,    2123,    2122
    1807,    2103,    2104,    2124,    2123
    1808,    2104,    2105,    2125,    2124
    1809,    2105,    2106,    2126,    2125
    1810,    2106,    2107,    2127,    2126
    1811,    2107,    2021,    2024,    2127
    1812,    2119,    2120,    2128,    2118
    1813,    2120,    2121,    2129,    2128
    1814,    2121,    2122,    2130,    2129
    1815,    2122,    2123,    2131,    2130
    1816,    2123,    2124,    2132,    2131
    1817,    2124,    2125,    2133,    2132
    1818,    2125,    2126,    2134,    2133
    1819,    2126,    2127,    2135,    2134
    1820,    2127,    2024,    2023,    2135
    1821,    2118,    2128,    2136,    2117
    1822,    2128,    2129,    2137,    2136
** ... 16 like lines cut
*ELEMENT, TYPE=S4R, ELSET=EB83
    1839,    2054,    2145,    2165,    2062
    1840,    2145,    2146,    2166,    2165
    1841,    2146,    2147,    2167,    2166
    1842,    2147,    2148,    2168,    2167
    1843,    2148,    2149,    2169,    2168
    1844,    2149,    2144,    2170,    2169
    1845,    2144,    2151,    2171,    2170
    1846,    2151,    2152,    2172,    2171
    1847,    2152,    2150,    2154,    2172
    1848,    2062,    2165,    2173,    2063
    1849,    2165,    2166,    2174,    2173
    1850,    2166,    2167,    2175,    2174
    1851,    2167,    2168,    2176,    2175
    1852,    2168,    2169,    2177,    2176
    1853,    2169,    2170,    2178,    2177
    1854,    2170,    2171,    2179,    2178
    1855,    2171,    2172,    2180,    2179
    1856,    2172,    2154,    2155,    2180
    1857,    2063,    2173,    2181,    2064
    1858,    2173,    2174,    2182,    2181
** ... 16 like lines cut
*ELEMENT, TYPE=S4R, ELSET=EB85
    1875,    2099,    2119,    2210,    2190
    1876,    2119,    2118,    2211,    2210
    1877,    2118,    2117,    2212,    2211
    1878,    2117,    2108,    2200,    2212
    1879,    2190,    2210,    2213,    2191
    1880,    2210,    2211,    2214,    2213
    1881,    2211,    2212,    2215,    2214
    1882,    2212,    2200,    2199,    2215
    1883,    2191,    2213,    2216,    2189
    1884,    2213,    2214,    2217,    2216
    1885,    2214,    2215,    2218,    2217
    1886,    2215,    2199,    2198,    2218
    1887,    2189,    2216,    2219,    2205
    1888,    2216,    2217,    2220,    2219
    1889,    2217,    2218,    2221,    2220
    1890,    2218,    2198,    2197,    2221
    1891,    2205,    2219,    2222,    2206
    1892,    2219,    2220,    2223,    2222
    1893,    2220,    2221,    2224,    2223
    1894,    2221,    2197,    2196,    2224
** ... 16 like lines cut
*ELEMENT, TYPE=S4R, ELSET=EB86
    1911,    2234,    2242,    2255,    2236
    1912,    2242,    2243,    2256,    2255
    1913,    2243,    2244,    2257,    2256
    1914,    2244,    2241,    2252,    2257
    1915,    2236,    2255,    2258,    2237
    1916,    2255,    2256,    2259,    2258
    1917,    2256,    2257,    2260,    2259
    1918,    2257,    2252,    2251,    2260
    1919,    2237,    2258,    2261,    2238
    1920,    2258,    2259,    2262,    2261
    1921,    2259,    2260,    2263,    2262
    1922,    2260,    2251,    2250,    2263
    1923,    2238,    2261,    2264,    2239
    1924,    2261,    2262,    2265,    2264
    1925,    2262,    2263,    2266,    2265
    1926,    2263,    2250,    2249,    2266
    1927,    2239,    2264,    2267,    2240
    1928,    2264,    2265,    2268,    2267
    1929,    2265,    2266,    2269,    2268
    1930,    2266,    2249,    2248,    2269
** ... 16 like lines cut
*ELEMENT, TYPE=S4R, ELSET=EB87
    1947,    2279,    2281,    2335,    2334
    1948,    2281,    2282,    2336,    2335
    1949,    2282,    2283,    2337,    2336
    1950,    2283,    2284,    2338,    2337
    1951,    2284,    2285,    2339,    2338
    1952,    2285,    2286,    2340,    2339
    1953,    2286,    2287,    2341,    2340
    1954,    2287,    2288,    2342,    2341
    1955,    2288,    2289,    2343,    2342
    1956,    2289,    2290,    2344,    2343
    1957,    2290,    2291,    2345,    2344
    1958,    2291,    2292,    2346,    2345
    1959,    2292,    2293,    2347,    2346
    1960,    2293,    2294,    2348,    2347
    1961,    2294,    2295,    2349,    2348
    1962,    2295,    2296,    2350,    2349
    1963,    2296,    2297,    2351,    2350
    1964,    2297,    2298,    2352,    2351
    1965,    2298,    2299,    2353,    2352
    1966,    2299,    2300,    2354,    2353
** ... 196 like lines cut
*ELEMENT, TYPE=S4R, ELSET=EB96
    2163,      58,      60,    2549,    2548
    2164,      60,      59,    2550,    2549
    2165,      59,      52,    2533,    2550
    2166,    2548,    2549,    2551,    2547
    2167,    2549,    2550,    2552,    2551
    2168,    2550,    2533,    2532,    2552
    2169,    2547,    2551,    2553,    2546
    2170,    2551,    2552,    2554,    2553
    2171,    2552,    2532,    2531,    2554
    2172,    2546,    2553,    2555,    2545
    2173,    2553,    2554,    2556,    2555
    2174,    2554,    2531,    2530,    2556
    2175,    2545,    2555,    2557,    2544
    2176,    2555,    2556,    2558,    2557
    2177,    2556,    2530,    2529,    2558
    2178,    2544,    2557,    2559,    2543
    2179,    2557,    2558,    2560,    2559
    2180,    2558,    2529,    2528,    2560
    2181,    2543,    2559,    2561,    2542
    2182,    2559,    2560,    2562,    2561
** ... 28 like lines cut
*ELEMENT, TYPE=S4R, ELSET=EB97
    2211,       2,    2519,    2579,       6
    2212,    2519,    2520,    2580,    2579
    2213,    2520,    2521,    2581,    2580
    2214,    2521,    2522,    2582,    2581
    2215,    2522,    2523,    2583,    2582
    2216,    2523,    2524,    2584,    2583
    2217,    2524,    2525,    2585,    2584
    2218,    2525,    2526,    2586,    2585
    2219,    2526,    2527,    2587,    2586
    2220,    2527,    2528,    2588,    2587
    2221,    2528,    2529,    2589,    2588
    2222,    2529,    2530,    2590,    2589
    2223,    2530,    2531,    2591,    2590
    2224,    2531,    2532,    2592,    2591
    2225,    2532,    2533,    2593,    2592
    2226,    2533,      52,      57,    2593
    2227,       6,    2579,    2594,       7
    2228,    2579,    2580,    2595,    2594
    2229,    2580,    2581,    2596,    2595
    2230,    2581,    2582,    2597,    2596
** ... 76 like lines cut
*ELEMENT, TYPE=S4R, ELSET=EB98
    2307,       1,     102,    2669,    2534
    2308,     102,     103,    2670,    2669
    2309,     103,     101,    2668,    2670
    2310,    2534,    2669,    2671,    2535
    2311,    2669,    2670,    2672,    2671
    2312,    2670,    2668,    2667,    2672
    2313,    2535,    2671,    2673,    2536
    2314,    2671,    2672,    2674,    2673
    2315,    2672,    2667,    2666,    2674
    2316,    2536,    2673,    2675,    2537
    2317,    2673,    2674,    2676,    2675
    2318,    2674,    2666,    2665,    2676
    2319,    2537,    2675,    2677,    2538
    2320,    2675,    2676,    2678,    2677
    2321,    2676,    2665,    2664,    2678
    2322,    2538,    2677,    2679,    2539
    2323,    2677,    2678,    2680,    2679
    2324,    2678,    2664,    2663,    2680
    2325,    2539,    2679,    2681,    2540
    2326,    2679,    2680,    2682,    2681
** ... 28 like lines cut
*ELEMENT, TYPE=S4R, ELSET=EB99
    2355,     147,    2654,    2714,     152
    2356,    2654,    2655,    2715,    2714
    2357,    2655,    2656,    2716,    2715
    2358,    2656,    2657,    2717,    2716
    2359,    2657,    2658,    2718,    2717
    2360,    2658,    2659,    2719,    2718
    2361,    2659,    2660,    2720,    2719
    2362,    2660,    2661,    2721,    2720
    2363,    2661,    2662,    2722,    2721
    2364,    2662,    2663,    2723,    2722
    2365,    2663,    2664,    2724,    2723
    2366,    2664,    2665,    2725,    2724
    2367,    2665,    2666,    2726,    2725
    2368,    2666,    2667,    2727,    2726
    2369,    2667,    2668,    2728,    2727
    2370,    2668,     101,     117,    2728
    2371,     152,    2714,    2729,     151
    2372,    2714,    2715,    2730,    2729
    2373,    2715,    2716,    2731,    2730
    2374,    2716,    2717,    2732,    2731
** ... 76 like lines cut
*ELEMENT, TYPE=S4R, ELSET=EB100
    2451,     657,     659,    2819,    2818
    2452,     659,     658,    2820,    2819
    2453,     658,     651,    2803,    2820
    2454,    2818,    2819,    2821,    2817
    2455,    2819,    2820,    2822,    2821
    2456,    2820,    2803,    2802,    2822
    2457,    2817,    2821,    2823,    2816
    2458,    2821,    2822,    2824,    2823
    2459,    2822,    2802,    2801,    2824
    2460,    2816,    2823,    2825,    2815
    2461,    2823,    2824,    2826,    2825
    2462,    2824,    2801,    2800,    2826
    2463,    2815,    2825,    2827,    2814
    2464,    2825,    2826,    2828,    2827
    2465,    2826,    2800,    2799,    2828
    2466,    2814,    2827,    2829,    2813
    2467,    2827,    2828,    2830,    2829
    2468,    2828,    2799,    2798,    2830
    2469,    2813,    2829,    2831,    2812
    2470,    2829,    2830,    2832,    2831
** ... 28 like lines cut
*ELEMENT, TYPE=S4R, ELSET=EB101
    2499,     607,    2789,    2849,     610
    2500,    2789,    2790,    2850,    2849
    2501,    2790,    2791,    2851,    2850
    2502,    2791,    2792,    2852,    2851
    2503,    2792,    2793,    2853,    2852
    2504,    2793,    2794,    2854,    2853
    2505,    2794,    2795,    2855,    2854
    2506,    2795,    2796,    2856,    2855
    2507,    2796,    2797,    2857,    2856
    2508,    2797,    2798,    2858,    2857
    2509,    2798,    2799,    2859,    2858
    2510,    2799,    2800,    2860,    2859
    2511,    2800,    2801,    2861,    2860
    2512,    2801,    2802,    2862,    2861
    2513,    2802,    2803,    2863,    2862
    2514,    2803,     651,     656,    2863
    2515,     610,    2849,    2864,     611
    2516,    2849,    2850,    2865,    2864
    2517,    2850,    2851,    2866,    2865
    2518,    2851,    2852,    2867,    2866
** ... 76 like lines cut
*ELEMENT, TYPE=S4R, ELSET=EB102
    2595,     606,     742,    2939,    2804
    2596,     742,     743,    2940,    2939
    2597,     743,     741,    2938,    2940
    2598,    2804,    2939,    2941,    2805
    2599,    2939,    2940,    2942,    2941
    2600,    2940,    2938,    2937,    2942
    2601,    2805,    2941,    2943,    2806
    2602,    2941,    2942,    2944,    2943
    2603,    2942,    2937,    2936,    2944
    2604,    2806,    2943,    2945,    2807
    2605,    2943,    2944,    2946,    2945
    2606,    2944,    2936,    2935,    2946
    2607,    2807,    2945,    2947,    2808
    2608,    2945,    2946,    2948,    2947
    2609,    2946,    2935,    2934,    2948
    2610,    2808,    2947,    2949,    2809
    2611,    2947,    2948,    2950,    2949
    2612,    2948,    2934,    2933,    2950
    2613,    2809,    2949,    2951,    2810
    2614,    2949,    2950,    2952,    2951
** ... 28 like lines cut
*ELEMENT, TYPE=S4R, ELSET=EB103
    2643,     697,    2924,    2984,     702
    2644,    2924,    2925,    2985,    2984
    2645,    2925,    2926,    2986,    2985
    2646,    2926,    2927,    2987,    2986
    2647,    2927,    2928,    2988,    2987
    2648,    2928,    2929,    2989,    2988
    2649,    2929,    2930,    2990,    2989
    2650,    2930,    2931,    2991,    2990
    2651,    2931,    2932,    2992,    2991
    2652,    2932,    2933,    2993,    2992
    2653,    2933,    2934,    2994,    2993
    2654,    2934,    2935,    2995,    2994
    2655,    2935,    2936,    2996,    2995
    2656,    2936,    2937,    2997,    2996
    2657,    2937,    2938,    2998,    2997
    2658,    2938,     741,     757,    2998
    2659,     702,    2984,    2999,     701
    2660,    2984,    2985,    3000,    2999
    2661,    2985,    2986,    3001,    3000
    2662,    2986,    2987,    3002,    3001
** ... 76 like lines cut
*ELEMENT, TYPE=S4R, ELSET=EB104
    2739,     837,     839,    3089,    3088
    2740,     839,     838,    3090,    3089
    2741,     838,     831,    3073,    3090
    2742,    3088,    3089,    3091,    3087
    2743,    3089,    3090,    3092,    3091
    2744,    3090,    3073,    3072,    3092
    2745,    3087,    3091,    3093,    3086
    2746,    3091,    3092,    3094,    3093
    2747,    3092,    3072,    3071,    3094
    2748,    3086,    3093,    3095,    3085
    2749,    3093,    3094,    3096,    3095
    2750,    3094,    3071,    3070,    3096
    2751,    3085,    3095,    3097,    3084
    2752,    3095,    3096,    3098,    3097
    2753,    3096,    3070,    3069,    3098
    2754,    3084,    3097,    3099,    3083
    2755,    3097,    3098,    3100,    3099
    2756,    3098,    3069,    3068,    3100
    2757,    3083,    3099,    3101,    3082
    2758,    3099,    3100,    3102,    3101
** ... 28 like lines cut
*ELEMENT, TYPE=S4R, ELSET=EB105
    2787,     787,    3059,    3119,     790
    2788,    3059,    3060,    3120,    3119
    2789,    3060,    3061,    3121,    3120
    2790,    3061,    3062,    3122,    3121
    2791,    3062,    3063,    3123,    3122
    2792,    3063,    3064,    3124,    3123
    2793,    3064,    3065,    3125,    3124
    2794,    3065,    3066,    3126,    3125
    2795,    3066,    3067,    3127,    3126
    2796,    3067,    3068,    3128,    3127
    2797,    3068,    3069,    3129,    3128
    2798,    3069,    3070,    3130,    3129
    2799,    3070,    3071,    3131,    3130
    2800,    3071,    3072,    3132,    3131
    2801,    3072,    3073,    3133,    3132
    2802,    3073,     831,     836,    3133
    2803,     790,    3119,    3134,     791
    2804,    3119,    3120,    3135,    3134
    2805,    3120,    3121,    3136,    3135
    2806,    3121,    3122,    3137,    3136
** ... 76 like lines cut
*ELEMENT, TYPE=S4R, ELSET=EB106
    2883,     786,     922,    3209,    3074
    2884,     922,     923,    3210,    3209
    2885,     923,     921,    3208,    3210
    2886,    3074,    3209,    3211,    3075
    2887,    3209,    3210,    3212,    3211
    2888,    3210,    3208,    3207,    3212
    2889,    3075,    3211,    3213,    3076
    2890,    3211,    3212,    3214,    3213
    2891,    3212,    3207,    3206,    3214
    2892,    3076,    3213,    3215,    3077
    2893,    3213,    3214,    3216,    3215
    2894,    3214,    3206,    3205,    3216
    2895,    3077,    3215,    3217,    3078
    2896,    3215,    3216,    3218,    3217
    2897,    3216,    3205,    3204,    3218
    2898,    3078,    3217,    3219,    3079
    2899,    3217,    3218,    3220,    3219
    2900,    3218,    3204,    3203,    3220
    2901,    3079,    3219,    3221,    3080
    2902,    3219,    3220,    3222,    3221
** ... 28 like lines cut
*ELEMENT, TYPE=S4R, ELSET=EB107
    2931,     877,    3194,    3254,     882
    2932,    3194,    3195,    3255,    3254
    2933,    3195,    3196,    3256,    3255
    2934,    3196,    3197,    3257,    3256
    2935,    3197,    3198,    3258,    3257
    2936,    3198,    3199,    3259,    3258
    2937,    3199,    3200,    3260,    3259
    2938,    3200,    3201,    3261,    3260
    2939,    3201,    3202,    3262,    3261
    2940,    3202,    3203,    3263,    3262
    2941,    3203,    3204,    3264,    3263
    2942,    3204,    3205,    3265,    3264
    2943,    3205,    3206,    3266,    3265
    2944,    3206,    3207,    3267,    3266
    2945,    3207,    3208,    3268,    3267
    2946,    3208,     921,     937,    3268
    2947,     882,    3254,    3269,     881
    2948,    3254,    3255,    3270,    3269
    2949,    3255,    3256,    3271,    3270
    2950,    3256,    3257,    3272,    3271
** ... 76 like lines cut
*ELEMENT, TYPE=S4R, ELSET=EB108
    6945,    1019,    5280,    6580,    3359
    6944,    3360,    3359,    6580,    6579
    6943,    1018,    6579,    6580,    5280
    3030,    3358,    3359,    3361,    3357
    3031,    3359,    3360,    3362,    3361
    3032,    3360,    3343,    3342,    3362
    3033,    3357,    3361,    3363,    3356
    3034,    3361,    3362,    3364,    3363
    3035,    3362,    3342,    3341,    3364
    3036,    3356,    3363,    3365,    3355
    3037,    3363,    3364,    3366,    3365
    3038,    3364,    3341,    3340,    3366
    3039,    3355,    3365,    3367,    3354
    3040,    3365,    3366,    3368,    3367
    3041,    3366,    3340,    3339,    3368
    3042,    3354,    3367,    3369,    3353
    3043,    3367,    3368,    3370,    3369
    3044,    3368,    3339,    3338,    3370
    3045,    3353,    3369,    3371,    3352
    3046,    3369,    3370,    3372,    3371
** ... 40 like lines cut
*ELEMENT, TYPE=S4R, ELSET=EB109
    6960,    3433,    6585,    6587,    3448
    3076,    3329,    3330,    3390,    3389
    3077,    3330,    3331,    3391,    3390
    3078,    3331,    3332,    3392,    3391
    3079,    3332,    3333,    3393,    3392
    3080,    3333,    3334,    3394,    3393
    3081,    3334,    3335,    3395,    3394
    3082,    3335,    3336,    3396,    3395
    3083,    3336,    3337,    3397,    3396
    3084,    3337,    3338,    3398,    3397
    3085,    3338,    3339,    3399,    3398
    3086,    3339,    3340,    3400,    3399
    3087,    3340,    3341,    3401,    3400
    3088,    3341,    3342,    3402,    3401
    3089,    3342,    3343,    3403,    3402
    6959,    1013,    3448,    6587,    6306
    6958,    1014,    6306,    6587,    6585
    3092,    3389,    3390,    3405,    3404
    3093,    3390,    3391,    3406,    3405
    3094,    3391,    3392,    3407,    3406
** ... 100 like lines cut
*ELEMENT, TYPE=S4R, ELSET=EB110
    6938,    3358,    3507,    6577,    6576
    6939,    1076,    5572,    6577,    3507
    6934,    1075,    6182,    6575,    6573
    3174,    3344,    3479,    3481,    3345
    3175,    3479,    3480,    3482,    3481
    3176,    3480,    3478,    3477,    3482
    3177,    3345,    3481,    3483,    3346
    3178,    3481,    3482,    3484,    3483
    3179,    3482,    3477,    3476,    3484
    3180,    3346,    3483,    3485,    3347
    3181,    3483,    3484,    3486,    3485
    3182,    3484,    3476,    3475,    3486
    3183,    3347,    3485,    3487,    3348
    3184,    3485,    3486,    3488,    3487
    3185,    3486,    3475,    3474,    3488
    3186,    3348,    3487,    3489,    3349
    3187,    3487,    3488,    3490,    3489
    3188,    3488,    3474,    3473,    3490
    3189,    3349,    3489,    3491,    3350
    3190,    3489,    3490,    3492,    3491
** ... 40 like lines cut
*ELEMENT, TYPE=S4R, ELSET=EB111
    6913,    3569,    6562,    6565,    6564
    3220,    3464,    3465,    3510,    3509
    3221,    3465,    3466,    3511,    3510
    3222,    3466,    3467,    3512,    3511
    3223,    3467,    3468,    3513,    3512
    3224,    3468,    3469,    3514,    3513
    3225,    3469,    3470,    3515,    3514
    3226,    3470,    3471,    3516,    3515
    3227,    3471,    3472,    3517,    3516
    3228,    3472,    3473,    3518,    3517
    3229,    3473,    3474,    3519,    3518
    3230,    3474,    3475,    3520,    3519
    3231,    3475,    3476,    3521,    3520
    3232,    3476,    3477,    3522,    3521
    3233,    3477,    3478,    3523,    3522
    6912,    1058,    6564,    6565,    4495
    6911,    1422,    5263,    6563,    3570
    3236,    3509,    3510,    3525,    3524
    3237,    3510,    3511,    3526,    3525
    3238,    3511,    3512,    3527,    3526
** ... 130 like lines cut
*ELEMENT, TYPE=S4R, ELSET=EB118
    7363,    3615,    3614,    6790,    6788
    7364,    1792,    6085,    6790,    3614
    7362,    1791,    6788,    6790,    6085
    3318,    3613,    3614,    3616,    3612
    3319,    3614,    3615,    3617,    3616
    3320,    3615,    3598,    3597,    3617
    3321,    3612,    3616,    3618,    3611
    3322,    3616,    3617,    3619,    3618
    3323,    3617,    3597,    3596,    3619
    3324,    3611,    3618,    3620,    3610
    3325,    3618,    3619,    3621,    3620
    3326,    3619,    3596,    3595,    3621
    3327,    3610,    3620,    3622,    3609
    3328,    3620,    3621,    3623,    3622
    3329,    3621,    3595,    3594,    3623
    3330,    3609,    3622,    3624,    3608
    3331,    3622,    3623,    3625,    3624
    3332,    3623,    3594,    3593,    3625
    3333,    3608,    3624,    3626,    3607
    3334,    3624,    3625,    3627,    3626
** ... 40 like lines cut
*ELEMENT, TYPE=S4R, ELSET=EB119
    7358,    1784,    6489,    6787,    3598
    3364,    3584,    3585,    3645,    3644
    3365,    3585,    3586,    3646,    3645
    3366,    3586,    3587,    3647,    3646
    3367,    3587,    3588,    3648,    3647
    3368,    3588,    3589,    3649,    3648
    3369,    3589,    3590,    3650,    3649
    3370,    3590,    3591,    3651,    3650
    3371,    3591,    3592,    3652,    3651
    3372,    3592,    3593,    3653,    3652
    3373,    3593,    3594,    3654,    3653
    3374,    3594,    3595,    3655,    3654
    3375,    3595,    3596,    3656,    3655
    3376,    3596,    3597,    3657,    3656
    3377,    3597,    3598,    3658,    3657
    7357,    3658,    3598,    6787,    6785
    7356,    1789,    6785,    6787,    6489
    3380,    3644,    3645,    3660,    3659
    3381,    3645,    3646,    3661,    3660
    3382,    3646,    3647,    3662,    3661
** ... 130 like lines cut
*ELEMENT, TYPE=S4R, ELSET=EB120
    7374,    1893,    6794,    6796,    5584
    7376,    1875,    5584,    6796,    3719
    7375,    3763,    3719,    6796,    6794
    3462,    3599,    3734,    3736,    3600
    3463,    3734,    3735,    3737,    3736
    3464,    3735,    3733,    3732,    3737
    3465,    3600,    3736,    3738,    3601
    3466,    3736,    3737,    3739,    3738
    3467,    3737,    3732,    3731,    3739
    3468,    3601,    3738,    3740,    3602
    3469,    3738,    3739,    3741,    3740
    3470,    3739,    3731,    3730,    3741
    3471,    3602,    3740,    3742,    3603
    3472,    3740,    3741,    3743,    3742
    3473,    3741,    3730,    3729,    3743
    3474,    3603,    3742,    3744,    3604
    3475,    3742,    3743,    3745,    3744
    3476,    3743,    3729,    3728,    3745
    3477,    3604,    3744,    3746,    3605
    3478,    3744,    3745,    3747,    3746
** ... 40 like lines cut
*ELEMENT, TYPE=S4R, ELSET=EB121
    7394,    1874,    6190,    6805,    3778
    3508,    3719,    3720,    3780,    3779
    3509,    3720,    3721,    3781,    3780
    3510,    3721,    3722,    3782,    3781
    3511,    3722,    3723,    3783,    3782
    3512,    3723,    3724,    3784,    3783
    3513,    3724,    3725,    3785,    3784
    3514,    3725,    3726,    3786,    3785
    3515,    3726,    3727,    3787,    3786
    3516,    3727,    3728,    3788,    3787
    3517,    3728,    3729,    3789,    3788
    3518,    3729,    3730,    3790,    3789
    3519,    3730,    3731,    3791,    3790
    3520,    3731,    3732,    3792,    3791
    3521,    3732,    3733,    3793,    3792
    7385,    3809,    6800,    6801,    3794
    7384,    1879,    3794,    6801,    4759
    3524,    3779,    3780,    3795,    3794
    3525,    3780,    3781,    3796,    3795
    3526,    3781,    3782,    3797,    3796
** ... 100 like lines cut
*ELEMENT, TYPE=S4R, ELSET=EB122
    3603,    1970,    1972,    3884,    3883
    3604,    1972,    1971,    3885,    3884
    3605,    1971,    1964,    3868,    3885
    3606,    3883,    3884,    3886,    3882
    3607,    3884,    3885,    3887,    3886
    3608,    3885,    3868,    3867,    3887
    3609,    3882,    3886,    3888,    3881
    3610,    3886,    3887,    3889,    3888
    3611,    3887,    3867,    3866,    3889
    3612,    3881,    3888,    3890,    3880
    3613,    3888,    3889,    3891,    3890
    3614,    3889,    3866,    3865,    3891
    3615,    3880,    3890,    3892,    3879
    3616,    3890,    3891,    3893,    3892
    3617,    3891,    3865,    3864,    3893
    3618,    3879,    3892,    3894,    3878
    3619,    3892,    3893,    3895,    3894
    3620,    3893,    3864,    3863,    3895
    3621,    3878,    3894,    3896,    3877
    3622,    3894,    3895,    3897,    3896
** ... 28 like lines cut
*ELEMENT, TYPE=S4R, ELSET=EB123
    3651,    1920,    3854,    3914,    1923
    3652,    3854,    3855,    3915,    3914
    3653,    3855,    3856,    3916,    3915
    3654,    3856,    3857,    3917,    3916
    3655,    3857,    3858,    3918,    3917
    3656,    3858,    3859,    3919,    3918
    3657,    3859,    3860,    3920,    3919
    3658,    3860,    3861,    3921,    3920
    3659,    3861,    3862,    3922,    3921
    3660,    3862,    3863,    3923,    3922
    3661,    3863,    3864,    3924,    3923
    3662,    3864,    3865,    3925,    3924
    3663,    3865,    3866,    3926,    3925
    3664,    3866,    3867,    3927,    3926
    3665,    3867,    3868,    3928,    3927
    3666,    3868,    1964,    1969,    3928
    3667,    1923,    3914,    3929,    1924
    3668,    3914,    3915,    3930,    3929
    3669,    3915,    3916,    3931,    3930
    3670,    3916,    3917,    3932,    3931
** ... 76 like lines cut
*ELEMENT, TYPE=S4R, ELSET=EB124
    3747,    1919,    2010,    4004,    3869
    3748,    2010,    2011,    4005,    4004
    3749,    2011,    2009,    4003,    4005
    3750,    3869,    4004,    4006,    3870
    3751,    4004,    4005,    4007,    4006
    3752,    4005,    4003,    4002,    4007
    3753,    3870,    4006,    4008,    3871
    3754,    4006,    4007,    4009,    4008
    3755,    4007,    4002,    4001,    4009
    3756,    3871,    4008,    4010,    3872
    3757,    4008,    4009,    4011,    4010
    3758,    4009,    4001,    4000,    4011
    3759,    3872,    4010,    4012,    3873
    3760,    4010,    4011,    4013,    4012
    3761,    4011,    4000,    3999,    4013
    3762,    3873,    4012,    4014,    3874
    3763,    4012,    4013,    4015,    4014
    3764,    4013,    3999,    3998,    4015
    3765,    3874,    4014,    4016,    3875
    3766,    4014,    4015,    4017,    4016
** ... 28 like lines cut
*ELEMENT, TYPE=S4R, ELSET=EB125
    3795,    2055,    3989,    4049,    2060
    3796,    3989,    3990,    4050,    4049
    3797,    3990,    3991,    4051,    4050
    3798,    3991,    3992,    4052,    4051
    3799,    3992,    3993,    4053,    4052
    3800,    3993,    3994,    4054,    4053
    3801,    3994,    3995,    4055,    4054
    3802,    3995,    3996,    4056,    4055
    3803,    3996,    3997,    4057,    4056
    3804,    3997,    3998,    4058,    4057
    3805,    3998,    3999,    4059,    4058
    3806,    3999,    4000,    4060,    4059
    3807,    4000,    4001,    4061,    4060
    3808,    4001,    4002,    4062,    4061
    3809,    4002,    4003,    4063,    4062
    3810,    4003,    2009,    2025,    4063
    3811,    2060,    4049,    4064,    2059
    3812,    4049,    4050,    4065,    4064
    3813,    4050,    4051,    4066,    4065
    3814,    4051,    4052,    4067,    4066
** ... 76 like lines cut
*ELEMENT, TYPE=S4R, ELSET=EB126
    3891,    2150,    2152,    4154,    4153
    3892,    2152,    2151,    4155,    4154
    3893,    2151,    2144,    4138,    4155
    3894,    4153,    4154,    4156,    4152
    3895,    4154,    4155,    4157,    4156
    3896,    4155,    4138,    4137,    4157
    3897,    4152,    4156,    4158,    4151
    3898,    4156,    4157,    4159,    4158
    3899,    4157,    4137,    4136,    4159
    3900,    4151,    4158,    4160,    4150
    3901,    4158,    4159,    4161,    4160
    3902,    4159,    4136,    4135,    4161
    3903,    4150,    4160,    4162,    4149
    3904,    4160,    4161,    4163,    4162
    3905,    4161,    4135,    4134,    4163
    3906,    4149,    4162,    4164,    4148
    3907,    4162,    4163,    4165,    4164
    3908,    4163,    4134,    4133,    4165
    3909,    4148,    4164,    4166,    4147
    3910,    4164,    4165,    4167,    4166
** ... 28 like lines cut
*ELEMENT, TYPE=S4R, ELSET=EB127
    3939,    2100,    4124,    4184,    2103
    3940,    4124,    4125,    4185,    4184
    3941,    4125,    4126,    4186,    4185
    3942,    4126,    4127,    4187,    4186
    3943,    4127,    4128,    4188,    4187
    3944,    4128,    4129,    4189,    4188
    3945,    4129,    4130,    4190,    4189
    3946,    4130,    4131,    4191,    4190
    3947,    4131,    4132,    4192,    4191
    3948,    4132,    4133,    4193,    4192
    3949,    4133,    4134,    4194,    4193
    3950,    4134,    4135,    4195,    4194
    3951,    4135,    4136,    4196,    4195
    3952,    4136,    4137,    4197,    4196
    3953,    4137,    4138,    4198,    4197
    3954,    4138,    2144,    2149,    4198
    3955,    2103,    4184,    4199,    2104
    3956,    4184,    4185,    4200,    4199
    3957,    4185,    4186,    4201,    4200
    3958,    4186,    4187,    4202,    4201
** ... 76 like lines cut
**
********************************** P R O P E R T I E S ************************
*SHELL SECTION, ELSET=EB128, SECTION INTEGRATION=SIMPSON, MATERIAL=Default-Steel
1.000000e+00
*SHELL SECTION, ELSET=EB129, SECTION INTEGRATION=SIMPSON, MATERIAL=Default-Steel
1.000000e+00
*SHELL SECTION, ELSET=EB6, SECTION INTEGRATION=SIMPSON, MATERIAL=Default-Steel
1.000000e+00
*SHELL SECTION, ELSET=EB7, SECTION INTEGRATION=SIMPSON, MATERIAL=Default-Steel
1.000000e+00
*SHELL SECTION, ELSET=EB9, SECTION INTEGRATION=SIMPSON, MATERIAL=Default-Steel
1.000000e+00
*SHELL SECTION, ELSET=EB10, SECTION INTEGRATION=SIMPSON, MATERIAL=Default-Steel
1.000000e+00
*SHELL SECTION, ELSET=EB11, SECTION INTEGRATION=SIMPSON, MATERIAL=Default-Steel
1.000000e+00
*SHELL SECTION, ELSET=EB12, SECTION INTEGRATION=SIMPSON, MATERIAL=Default-Steel
1.000000e+00
*SHELL SECTION, ELSET=EB14, SECTION INTEGRATION=SIMPSON, MATERIAL=Default-Steel
1.000000e+00
*SHELL SECTION, ELSET=EB15, SECTION INTEGRATION=SIMPSON, MATERIAL=Default-Steel
1.000000e+00
*SHELL SECTION, ELSET=EB17, SECTION INTEGRATION=SIMPSON, MATERIAL=Default-Steel
1.000000e+00
*SHELL SECTION, ELSET=EB18, SECTION INTEGRATION=SIMPSON, MATERIAL=Default-Steel
1.000000e+00
*SHELL SECTION, ELSET=EB20, SECTION INTEGRATION=SIMPSON, MATERIAL=Default-Steel
1.000000e+00
*SHELL SECTION, ELSET=EB21, SECTION INTEGRATION=SIMPSON, MATERIAL=Default-Steel
1.000000e+00
*SHELL SECTION, ELSET=EB23, SECTION INTEGRATION=SIMPSON, MATERIAL=Default-Steel
1.000000e+00
*SHELL SECTION, ELSET=EB24, SECTION INTEGRATION=SIMPSON, MATERIAL=Default-Steel
1.000000e+00
*SHELL SECTION, ELSET=EB26, SECTION INTEGRATION=SIMPSON, MATERIAL=Default-Steel
1.000000e+00
*SHELL SECTION, ELSET=EB27, SECTION INTEGRATION=SIMPSON, MATERIAL=Default-Steel
1.000000e+00
*SHELL SECTION, ELSET=EB29, SECTION INTEGRATION=SIMPSON, MATERIAL=Default-Steel
1.000000e+00
*SHELL SECTION, ELSET=EB45, SECTION INTEGRATION=SIMPSON, MATERIAL=Default-Steel
1.000000e+00
** ... 102 like lines cut
**
*END PART
**
**
**
********************************** E N D   P A R T S **********************************
**
**
********************************** A S S E M B L Y ************************************
**
*ASSEMBLY, NAME=ASSEMBLY1
**
*INSTANCE, NAME=Part-Default_1, PART=Part-Default
*END INSTANCE
**
*END ASSEMBLY
**
**
**
*MATERIAL, NAME = Default-Steel
*ELASTIC, TYPE=ISOTROPIC
2.068000e+05, 2.900000e-01
*DENSITY
7.000000e-06
*CONDUCTIVITY,TYPE=ISO
4.500000e-02
*SPECIFIC HEAT
5.000000e+02
**
**
************************************** H I S T O R Y *************************************
**
*PREPRINT
**
**************************************** S T E P 1 ***************************************
*STEP,INC=100,NAME=Default Set
**
*STATIC
1, 1, 1e-05, 1
**
**
**
**
*END STEP
