*HEADING
cubit(/home/wzhenlin/workspace/cubitMesh/1cubicParticle_20.inp): 04/09/2017: 18:
version: 13.2
**
********************************** P A R T S **********************************
*PART, NAME=Part-Default
**
********************************** N O D E S **********************************
*NODE, NSET=ALLNODES
       1,    2.500000e-01,    2.500000e+00,    2.500000e-01
       2,    7.500000e-01,    2.500000e+00,    2.500000e-01
       3,    3.000000e-01,    2.500000e+00,    2.500000e-01
       4,    3.500000e-01,    2.500000e+00,    2.500000e-01
       5,    4.000000e-01,    2.500000e+00,    2.500000e-01
       6,    4.500000e-01,    2.500000e+00,    2.500000e-01
       7,    5.000000e-01,    2.500000e+00,    2.500000e-01
       8,    5.500000e-01,    2.500000e+00,    2.500000e-01
       9,    6.000000e-01,    2.500000e+00,    2.500000e-01
      10,    6.500000e-01,    2.500000e+00,    2.500000e-01
      11,    7.000000e-01,    2.500000e+00,    2.500000e-01
      12,    7.500000e-01,    2.500000e+00,    7.500000e-01
      13,    7.500000e-01,    2.500000e+00,    7.000000e-01
      14,    7.500000e-01,    2.500000e+00,    6.500000e-01
      15,    7.500000e-01,    2.500000e+00,    6.000000e-01
      16,    7.500000e-01,    2.500000e+00,    5.500000e-01
      17,    7.500000e-01,    2.500000e+00,    5.000000e-01
      18,    7.500000e-01,    2.500000e+00,    4.500000e-01
      19,    7.500000e-01,    2.500000e+00,    4.000000e-01
      20,    7.500000e-01,    2.500000e+00,    3.500000e-01
** ... 22471 like lines cut
**
********************************** E L E M E N T S ****************************
*ELEMENT, TYPE=C3D8R, ELSET=EB21
    3121,    4132,    4103,    4266,    4265,    5408,    5237,    5826,    5825
    3122,    4131,    4132,    4265,    4267,    5407,    5408,    5825,    5827
    3123,    4130,    4131,    4267,    4268,    5406,    5407,    5827,    5828
    3124,    4129,    4130,    4268,    4269,    5405,    5406,    5828,    5829
    3125,    4128,    4129,    4269,    4270,    5404,    5405,    5829,    5830
    3126,    4127,    4128,    4270,    4271,    5403,    5404,    5830,    5831
    3127,    4126,    4127,    4271,    4272,    5402,    5403,    5831,    5832
    3128,    4125,    4126,    4272,    4273,    5401,    5402,    5832,    5833
    3129,    4124,    4125,    4273,    4274,    5400,    5401,    5833,    5834
    3130,    4123,    4124,    4274,    4275,    5129,    5400,    5834,    5835
    3131,    4277,    4123,    4275,    4276,    5837,    5129,    5835,    5836
    3132,    4151,    4123,    4277,    4278,    5218,    5129,    5837,    5838
    3133,    4150,    4151,    4278,    4279,    5217,    5218,    5838,    5839
    3134,    4149,    4150,    4279,    4280,    5216,    5217,    5839,    5840
    3135,    4148,    4149,    4280,    4281,    5215,    5216,    5840,    5841
    3136,    4147,    4148,    4281,    4282,    5214,    5215,    5841,    5842
    3137,    4146,    4147,    4282,    4283,    5213,    5214,    5842,    5843
    3138,    4145,    4146,    4283,    4284,    5212,    5213,    5843,    5844
    3139,    4144,    4145,    4284,    4285,    5211,    5212,    5844,    5845
    3140,    4143,    4144,    4285,    4286,    5210,    5211,    5845,    5846
** ... 1540 like lines cut
*ELEMENT, TYPE=C3D8R, ELSET=EB22
   10681,   11603,   11602,   13730,   13729,   14068,   14059,   14890,   14889
   10682,   11604,   11603,   13729,   13731,   14077,   14068,   14889,   14891
   10683,   11605,   11604,   13731,   13732,   14086,   14077,   14891,   14892
   10684,   11606,   11605,   13732,   13733,   14095,   14086,   14892,   14893
   10685,   11607,   11606,   13733,   13734,   14104,   14095,   14893,   14894
   10686,   11608,   11607,   13734,   13735,   14113,   14104,   14894,   14895
   10687,   11609,   11608,   13735,   13736,   14122,   14113,   14895,   14896
   10688,   11610,   11609,   13736,   13737,   14131,   14122,   14896,   14897
   10689,   11611,   11610,   13737,   13738,   14140,   14131,   14897,   14898
   10690,   11612,   11611,   13738,   13739,   14149,   14140,   14898,   14899
   10691,   11613,   11612,   13739,   13740,   14158,   14149,   14899,   14900
   10692,   11614,   11613,   13740,   13741,   14167,   14158,   14900,   14901
   10693,   11615,   11614,   13741,   13742,   14176,   14167,   14901,   14902
   10694,   11616,   11615,   13742,   13743,   14185,   14176,   14902,   14903
   10695,   11617,   11616,   13743,   13744,   14194,   14185,   14903,   14904
   10696,   11618,   11617,   13744,   13745,   14203,   14194,   14904,   14905
   10697,   13729,   13730,    3987,    4051,   14889,   14890,    4700,    4738
   10698,   13731,   13729,    4051,    4052,   14891,   14889,    4738,    4737
   10699,   13732,   13731,    4052,    4053,   14892,   14891,    4737,    4736
   10700,   13733,   13732,    4053,    4054,   14893,   14892,    4736,    4735
** ... 1420 like lines cut
*ELEMENT, TYPE=C3D8R, ELSET=EB4
   15001,   10323,   10344,   10362,   10333,   10324,   18361,   18523,   10334
   15002,   10344,   10345,   10361,   10362,   18361,   18362,   18524,   18523
   15003,   10345,   10346,   10360,   10361,   18362,   18363,   18525,   18524
   15004,   10346,   10347,   10359,   10360,   18363,   18364,   18526,   18525
   15005,   10347,   10348,   10358,   10359,   18364,   18365,   18527,   18526
   15006,   10348,   10349,   10357,   10358,   18365,   18366,   18528,   18527
   15007,   10349,   10350,   10356,   10357,   18366,   18367,   18529,   18528
   15008,   10350,   10351,   10355,   10356,   18367,   18368,   18530,   18529
   15009,   10351,   10352,   10354,   10355,   18368,   18369,   18531,   18530
   15010,   10352,   10343,   10353,   10354,   18369,   10372,   10382,   18531
   15011,   10333,   10362,    7369,    6865,   10334,   18523,   18532,    6867
   15012,   10362,   10361,    7368,    7369,   18523,   18524,   18533,   18532
   15013,   10361,   10360,    7367,    7368,   18524,   18525,   18534,   18533
   15014,   10360,   10359,    7366,    7367,   18525,   18526,   18535,   18534
   15015,   10359,   10358,    7365,    7366,   18526,   18527,   18536,   18535
   15016,   10358,   10357,    7364,    7365,   18527,   18528,   18537,   18536
   15017,   10357,   10356,    7363,    7364,   18528,   18529,   18538,   18537
   15018,   10356,   10355,    7362,    7363,   18529,   18530,   18539,   18538
   15019,   10355,   10354,    7361,    7362,   18530,   18531,   18540,   18539
   15020,   10354,   10353,    7201,    7361,   18531,   10382,    7210,   18540
** ... 1980 like lines cut
*ELEMENT, TYPE=C3D8R, ELSET=EB5
    4993,    7225,    7352,    9257,    9258,    6449,    6451,    6761,    6762
    4994,    7352,    7353,    9259,    9257,    6451,    6452,    6763,    6761
    4995,    7353,    7354,    9260,    9259,    6452,    6453,    6764,    6763
    4996,    7354,    7355,    9261,    9260,    6453,    6454,    6765,    6764
    4997,    7355,    7356,    9262,    9261,    6454,    6455,    6766,    6765
    4998,    7356,    7357,    9263,    9262,    6455,    6456,    6767,    6766
    4999,    7357,    7358,    9264,    9263,    6456,    6457,    6768,    6767
    5000,    7358,    7359,    9265,    9264,    6457,    6458,    6769,    6768
    5001,    7359,    7360,    9266,    9265,    6458,    6459,    6770,    6769
    5002,    7360,    7051,    9267,    9266,    6459,    6450,    6771,    6770
    5003,    7051,    9268,    9269,    9267,    6450,    6772,    6773,    6771
    5004,    7051,    7192,    9270,    9268,    6450,    6472,    6774,    6772
    5005,    7192,    7193,    9271,    9270,    6472,    6473,    6775,    6774
    5006,    7193,    7194,    9272,    9271,    6473,    6474,    6776,    6775
    5007,    7194,    7195,    9273,    9272,    6474,    6475,    6777,    6776
    5008,    7195,    7196,    9274,    9273,    6475,    6476,    6778,    6777
    5009,    7196,    7197,    9275,    9274,    6476,    6477,    6779,    6778
    5010,    7197,    7198,    9276,    9275,    6477,    6478,    6780,    6779
    5011,    7198,    7199,    9277,    9276,    6478,    6479,    6781,    6780
    5012,    7199,    7200,    9278,    9277,    6479,    6480,    6782,    6781
** ... 2476 like lines cut
*ELEMENT, TYPE=C3D8R, ELSET=EB8
    7489,    7210,    7201,   10090,   10089,   10382,   10353,   10402,   10401
    7490,    7209,    7210,   10089,   10091,   10381,   10382,   10401,   10403
    7491,    7208,    7209,   10091,   10092,   10380,   10381,   10403,   10404
    7492,    7207,    7208,   10092,   10093,   10379,   10380,   10404,   10405
    7493,    7206,    7207,   10093,   10094,   10378,   10379,   10405,   10406
    7494,    7205,    7206,   10094,   10095,   10377,   10378,   10406,   10407
    7495,    7204,    7205,   10095,   10096,   10376,   10377,   10407,   10408
    7496,    7203,    7204,   10096,   10097,   10375,   10376,   10408,   10409
    7497,    7202,    7203,   10097,   10098,   10374,   10375,   10409,   10410
    7498,    7041,    7202,   10098,   10099,   10373,   10374,   10410,   10411
    7499,   10100,    7041,   10099,   10101,   10413,   10373,   10411,   10412
    7500,    7050,    7041,   10100,   10102,   10400,   10373,   10413,   10414
    7501,    7049,    7050,   10102,   10103,   10399,   10400,   10414,   10415
    7502,    7048,    7049,   10103,   10104,   10398,   10399,   10415,   10416
    7503,    7047,    7048,   10104,   10105,   10397,   10398,   10416,   10417
    7504,    7046,    7047,   10105,   10106,   10396,   10397,   10417,   10418
    7505,    7045,    7046,   10106,   10107,   10395,   10396,   10418,   10419
    7506,    7044,    7045,   10107,   10108,   10394,   10395,   10419,   10420
    7507,    7043,    7044,   10108,   10109,   10393,   10394,   10420,   10421
    7508,    7042,    7043,   10109,   10110,   10392,   10393,   10421,   10422
** ... 292 like lines cut
*ELEMENT, TYPE=C3D8R, ELSET=EB9
    4681,    6461,    6462,    6657,    6658,    5219,    5319,    6345,    6346
    4682,    6462,    6463,    6659,    6657,    5319,    5320,    6347,    6345
    4683,    6463,    6464,    6660,    6659,    5320,    5321,    6348,    6347
    4684,    6464,    6465,    6661,    6660,    5321,    5322,    6349,    6348
    4685,    6465,    6466,    6662,    6661,    5322,    5323,    6350,    6349
    4686,    6466,    6467,    6663,    6662,    5323,    5324,    6351,    6350
    4687,    6467,    6468,    6664,    6663,    5324,    5325,    6352,    6351
    4688,    6468,    6469,    6665,    6664,    5325,    5326,    6353,    6352
    4689,    6469,    6470,    6666,    6665,    5326,    5327,    6354,    6353
    4690,    6470,    6460,    6667,    6666,    5327,    5119,    6355,    6354
    4691,    6460,    6668,    6669,    6667,    5119,    6357,    6356,    6355
    4692,    6460,    6482,    6670,    6668,    5119,    5128,    6358,    6357
    4693,    6482,    6483,    6671,    6670,    5128,    5127,    6359,    6358
    4694,    6483,    6484,    6672,    6671,    5127,    5126,    6360,    6359
    4695,    6484,    6485,    6673,    6672,    5126,    5125,    6361,    6360
    4696,    6485,    6486,    6674,    6673,    5125,    5124,    6362,    6361
    4697,    6486,    6487,    6675,    6674,    5124,    5123,    6363,    6362
    4698,    6487,    6488,    6676,    6675,    5123,    5122,    6364,    6363
    4699,    6488,    6489,    6677,    6676,    5122,    5121,    6365,    6364
    4700,    6489,    6490,    6678,    6677,    5121,    5120,    6366,    6365
** ... 292 like lines cut
*ELEMENT, TYPE=C3D8R, ELSET=EB10
   12121,   16199,   16218,   17569,   17570,   14039,   14038,   15249,   15250
   12122,   16218,   16237,   17571,   17569,   14038,   14037,   15251,   15249
   12123,   16237,   16256,   17572,   17571,   14037,   14036,   15252,   15251
   12124,   16256,   16275,   17573,   17572,   14036,   14035,   15253,   15252
   12125,   16275,   16294,   17574,   17573,   14035,   14034,   15254,   15253
   12126,   16294,   16313,   17575,   17574,   14034,   14033,   15255,   15254
   12127,   16313,   16332,   17576,   17575,   14033,   14032,   15256,   15255
   12128,   16332,   16351,   17577,   17576,   14032,   14031,   15257,   15256
   12129,   16351,   16370,   17578,   17577,   14031,   14030,   15258,   15257
   12130,   16370,   16389,   17579,   17578,   14030,   14029,   15259,   15258
   12131,   16389,   16408,   17580,   17579,   14029,   14028,   15260,   15259
   12132,   16408,   16427,   17581,   17580,   14028,   14027,   15261,   15260
   12133,   16427,   16446,   17582,   17581,   14027,   14026,   15262,   15261
   12134,   16446,   16465,   17583,   17582,   14026,   14025,   15263,   15262
   12135,   16465,   16484,   17584,   17583,   14025,   14024,   15264,   15263
   12136,   16484,   16503,   17585,   17584,   14024,   14023,   15265,   15264
   12137,   17570,   17569,    6580,    6579,   15250,   15249,    4723,    4699
   12138,   17569,   17571,    6581,    6580,   15249,   15251,    4722,    4723
   12139,   17571,   17572,    6582,    6581,   15251,   15252,    4721,    4722
   12140,   17572,   17573,    6583,    6582,   15252,   15253,    4720,    4721
** ... 2860 like lines cut
*ELEMENT, TYPE=C3D8R, ELSET=EB11
   17001,    4083,    4104,    4122,    4093,    4084,   20062,   20224,    4094
   17002,    4104,    4105,    4121,    4122,   20062,   20063,   20225,   20224
   17003,    4105,    4106,    4120,    4121,   20063,   20064,   20226,   20225
   17004,    4106,    4107,    4119,    4120,   20064,   20065,   20227,   20226
   17005,    4107,    4108,    4118,    4119,   20065,   20066,   20228,   20227
   17006,    4108,    4109,    4117,    4118,   20066,   20067,   20229,   20228
   17007,    4109,    4110,    4116,    4117,   20067,   20068,   20230,   20229
   17008,    4110,    4111,    4115,    4116,   20068,   20069,   20231,   20230
   17009,    4111,    4112,    4114,    4115,   20069,   20070,   20232,   20231
   17010,    4112,    4103,    4113,    4114,   20070,    4132,    4142,   20232
   17011,    4093,    4122,    1129,     625,    4094,   20224,   20233,     627
   17012,    4122,    4121,    1128,    1129,   20224,   20225,   20234,   20233
   17013,    4121,    4120,    1127,    1128,   20225,   20226,   20235,   20234
   17014,    4120,    4119,    1126,    1127,   20226,   20227,   20236,   20235
   17015,    4119,    4118,    1125,    1126,   20227,   20228,   20237,   20236
   17016,    4118,    4117,    1124,    1125,   20228,   20229,   20238,   20237
   17017,    4117,    4116,    1123,    1124,   20229,   20230,   20239,   20238
   17018,    4116,    4115,    1122,    1123,   20230,   20231,   20240,   20239
   17019,    4115,    4114,    1121,    1122,   20231,   20232,   20241,   20240
   17020,    4114,    4113,     961,    1121,   20232,    4142,     970,   20241
** ... 1980 like lines cut
*ELEMENT, TYPE=C3D8R, ELSET=EB12
     313,     985,    1112,    3017,    3018,     209,     211,     521,     522
     314,    1112,    1113,    3019,    3017,     211,     212,     523,     521
     315,    1113,    1114,    3020,    3019,     212,     213,     524,     523
     316,    1114,    1115,    3021,    3020,     213,     214,     525,     524
     317,    1115,    1116,    3022,    3021,     214,     215,     526,     525
     318,    1116,    1117,    3023,    3022,     215,     216,     527,     526
     319,    1117,    1118,    3024,    3023,     216,     217,     528,     527
     320,    1118,    1119,    3025,    3024,     217,     218,     529,     528
     321,    1119,    1120,    3026,    3025,     218,     219,     530,     529
     322,    1120,     811,    3027,    3026,     219,     210,     531,     530
     323,     811,    3028,    3029,    3027,     210,     532,     533,     531
     324,     811,     952,    3030,    3028,     210,     232,     534,     532
     325,     952,     953,    3031,    3030,     232,     233,     535,     534
     326,     953,     954,    3032,    3031,     233,     234,     536,     535
     327,     954,     955,    3033,    3032,     234,     235,     537,     536
     328,     955,     956,    3034,    3033,     235,     236,     538,     537
     329,     956,     957,    3035,    3034,     236,     237,     539,     538
     330,     957,     958,    3036,    3035,     237,     238,     540,     539
     331,     958,     959,    3037,    3036,     238,     239,     541,     540
     332,     959,     960,    3038,    3037,     239,     240,     542,     541
** ... 2476 like lines cut
*ELEMENT, TYPE=C3D8R, ELSET=EB13
    2809,     970,     961,    3850,    3849,    4142,    4113,    4162,    4161
    2810,     969,     970,    3849,    3851,    4141,    4142,    4161,    4163
    2811,     968,     969,    3851,    3852,    4140,    4141,    4163,    4164
    2812,     967,     968,    3852,    3853,    4139,    4140,    4164,    4165
    2813,     966,     967,    3853,    3854,    4138,    4139,    4165,    4166
    2814,     965,     966,    3854,    3855,    4137,    4138,    4166,    4167
    2815,     964,     965,    3855,    3856,    4136,    4137,    4167,    4168
    2816,     963,     964,    3856,    3857,    4135,    4136,    4168,    4169
    2817,     962,     963,    3857,    3858,    4134,    4135,    4169,    4170
    2818,     801,     962,    3858,    3859,    4133,    4134,    4170,    4171
    2819,    3860,     801,    3859,    3861,    4173,    4133,    4171,    4172
    2820,     810,     801,    3860,    3862,    4160,    4133,    4173,    4174
    2821,     809,     810,    3862,    3863,    4159,    4160,    4174,    4175
    2822,     808,     809,    3863,    3864,    4158,    4159,    4175,    4176
    2823,     807,     808,    3864,    3865,    4157,    4158,    4176,    4177
    2824,     806,     807,    3865,    3866,    4156,    4157,    4177,    4178
    2825,     805,     806,    3866,    3867,    4155,    4156,    4178,    4179
    2826,     804,     805,    3867,    3868,    4154,    4155,    4179,    4180
    2827,     803,     804,    3868,    3869,    4153,    4154,    4180,    4181
    2828,     802,     803,    3869,    3870,    4152,    4153,    4181,    4182
** ... 292 like lines cut
*ELEMENT, TYPE=C3D8R, ELSET=EB14
       1,     221,     222,     417,     418,       1,       3,     106,     105
       2,     222,     223,     419,     417,       3,       4,     107,     106
       3,     223,     224,     420,     419,       4,       5,     108,     107
       4,     224,     225,     421,     420,       5,       6,     109,     108
       5,     225,     226,     422,     421,       6,       7,     110,     109
       6,     226,     227,     423,     422,       7,       8,     111,     110
       7,     227,     228,     424,     423,       8,       9,     112,     111
       8,     228,     229,     425,     424,       9,      10,     113,     112
       9,     229,     230,     426,     425,      10,      11,     114,     113
      10,     230,     220,     427,     426,      11,       2,     115,     114
      11,     220,     428,     429,     427,       2,     117,     116,     115
      12,     220,     242,     430,     428,       2,      21,     118,     117
      13,     242,     243,     431,     430,      21,      20,     119,     118
      14,     243,     244,     432,     431,      20,      19,     120,     119
      15,     244,     245,     433,     432,      19,      18,     121,     120
      16,     245,     246,     434,     433,      18,      17,     122,     121
      17,     246,     247,     435,     434,      17,      16,     123,     122
      18,     247,     248,     436,     435,      16,      15,     124,     123
      19,     248,     249,     437,     436,      15,      14,     125,     124
      20,     249,     250,     438,     437,      14,      13,     126,     125
** ... 292 like lines cut
*ELEMENT, TYPE=C3D8R, ELSET=EB15
    7801,   11639,   11658,   13009,   13010,   10648,   10647,   10691,   10690
    7802,   11658,   11677,   13011,   13009,   10647,   10646,   10692,   10691
    7803,   11677,   11696,   13012,   13011,   10646,   10645,   10693,   10692
    7804,   11696,   11715,   13013,   13012,   10645,   10644,   10694,   10693
    7805,   11715,   11734,   13014,   13013,   10644,   10643,   10695,   10694
    7806,   11734,   11753,   13015,   13014,   10643,   10642,   10696,   10695
    7807,   11753,   11772,   13016,   13015,   10642,   10641,   10697,   10696
    7808,   11772,   11791,   13017,   13016,   10641,   10640,   10698,   10697
    7809,   11791,   11810,   13018,   13017,   10640,   10639,   10699,   10698
    7810,   11810,   11829,   13019,   13018,   10639,   10638,   10700,   10699
    7811,   11829,   11848,   13020,   13019,   10638,   10637,   10701,   10700
    7812,   11848,   11867,   13021,   13020,   10637,   10636,   10702,   10701
    7813,   11867,   11886,   13022,   13021,   10636,   10635,   10703,   10702
    7814,   11886,   11905,   13023,   13022,   10635,   10634,   10704,   10703
    7815,   11905,   11924,   13024,   13023,   10634,   10633,   10705,   10704
    7816,   11924,   11943,   13025,   13024,   10633,   10632,   10689,   10705
    7817,   13010,   13009,     340,     339,   10690,   10691,      57,      42
    7818,   13009,   13011,     341,     340,   10691,   10692,      56,      57
    7819,   13011,   13012,     342,     341,   10692,   10693,      55,      56
    7820,   13012,   13013,     343,     342,   10693,   10694,      54,      55
** ... 2860 like lines cut
*ELEMENT, TYPE=C3D8R, ELSET=EB18
   19001,    5119,    5137,    5328,    5327,    5128,    5146,   21763,   18450
   19002,    5137,    5136,    5337,    5328,    5146,    5155,   21764,   21763
   19003,    5136,    5135,    5346,    5337,    5155,    5164,   21765,   21764
   19004,    5135,    5134,    5355,    5346,    5164,    5173,   21766,   21765
   19005,    5134,    5133,    5364,    5355,    5173,    5182,   21767,   21766
   19006,    5133,    5132,    5373,    5364,    5182,    5191,   21768,   21767
   19007,    5132,    5131,    5382,    5373,    5191,    5200,   21769,   21768
   19008,    5131,    5130,    5391,    5382,    5200,    5209,   21770,   21769
   19009,    5130,    5129,    5400,    5391,    5209,    5218,   21771,   21770
   19010,    5129,    4123,    4124,    5400,    5218,    4151,   20142,   21771
   19011,    5327,    5328,    5329,    5326,   18450,   21763,   21772,   18459
   19012,    5328,    5337,    5338,    5329,   21763,   21764,   21773,   21772
   19013,    5337,    5346,    5347,    5338,   21764,   21765,   21774,   21773
   19014,    5346,    5355,    5356,    5347,   21765,   21766,   21775,   21774
   19015,    5355,    5364,    5365,    5356,   21766,   21767,   21776,   21775
   19016,    5364,    5373,    5374,    5365,   21767,   21768,   21777,   21776
   19017,    5373,    5382,    5383,    5374,   21768,   21769,   21778,   21777
   19018,    5382,    5391,    5392,    5383,   21769,   21770,   21779,   21778
   19019,    5391,    5400,    5401,    5392,   21770,   21771,   21780,   21779
   19020,    5400,    4124,    4125,    5401,   21771,   20142,   20133,   21780
** ... 980 like lines cut
**
********************************** P R O P E R T I E S ************************
*SOLID SECTION, ELSET=EB21, MATERIAL=Default-Steel
*SOLID SECTION, ELSET=EB22, MATERIAL=Default-Steel
*SOLID SECTION, ELSET=EB4, MATERIAL=Default-Steel
*SOLID SECTION, ELSET=EB5, MATERIAL=Default-Steel
*SOLID SECTION, ELSET=EB8, MATERIAL=Default-Steel
*SOLID SECTION, ELSET=EB9, MATERIAL=Default-Steel
*SOLID SECTION, ELSET=EB10, MATERIAL=Default-Steel
*SOLID SECTION, ELSET=EB11, MATERIAL=Default-Steel
*SOLID SECTION, ELSET=EB12, MATERIAL=Default-Steel
*SOLID SECTION, ELSET=EB13, MATERIAL=Default-Steel
*SOLID SECTION, ELSET=EB14, MATERIAL=Default-Steel
*SOLID SECTION, ELSET=EB15, MATERIAL=Default-Steel
*SOLID SECTION, ELSET=EB18, MATERIAL=Default-Steel
**
*END PART
**
**
**
********************************** E N D   P A R T S **********************************
**
**
********************************** A S S E M B L Y ************************************
**
*ASSEMBLY, NAME=ASSEMBLY1
**
*INSTANCE, NAME=Part-Default_1, PART=Part-Default
*END INSTANCE
**
*END ASSEMBLY
**
**
**
*MATERIAL, NAME = Default-Steel
*ELASTIC, TYPE=ISOTROPIC
2.068000e+05, 2.900000e-01
*DENSITY
7.000000e-06
*CONDUCTIVITY,TYPE=ISO
4.500000e-02
*SPECIFIC HEAT
5.000000e+02
**
**
************************************** H I S T O R Y *************************************
**
*PREPRINT
**
**************************************** S T E P 1 ***************************************
*STEP,INC=100,NAME=Default Set
**
*STATIC
1, 1, 1e-05, 1
**
**
**
**
*END STEP
