*HEADING
cubit(/home/wzhenlin/workspace/cubitMesh/2D/studyR/R11.inp): 02/05/2018: 17:19:2
version: 13.2
**
********************************** P A R T S **********************************
*PART, NAME=Part-Default
**
********************************** N O D E S **********************************
*NODE, NSET=ALLNODES
       1,    8.046738e+00,    2.350000e+01,    0.000000e+00
       2,    8.874120e+00,    2.250000e+01,    0.000000e+00
       3,    1.100000e+01,    1.600000e+01,    0.000000e+00
       4,    9.424186e+00,    2.167316e+01,    0.000000e+00
       5,    9.897438e+00,    2.080008e+01,    0.000000e+00
       6,    1.029002e+01,    1.988787e+01,    0.000000e+00
       7,    1.059873e+01,    1.894397e+01,    0.000000e+00
       8,    1.082105e+01,    1.797608e+01,    0.000000e+00
       9,    1.095517e+01,    1.699208e+01,    0.000000e+00
      10,    1.300000e+01,    1.600000e+01,    0.000000e+00
      11,    1.233333e+01,    1.600000e+01,    0.000000e+00
      12,    1.166667e+01,    1.600000e+01,    0.000000e+00
      13,    1.300000e+01,    2.350000e+01,    0.000000e+00
      14,    1.300000e+01,    1.693750e+01,    0.000000e+00
      15,    1.300000e+01,    1.787500e+01,    0.000000e+00
      16,    1.300000e+01,    1.881250e+01,    0.000000e+00
      17,    1.300000e+01,    1.975000e+01,    0.000000e+00
      18,    1.300000e+01,    2.068750e+01,    0.000000e+00
      19,    1.300000e+01,    2.162500e+01,    0.000000e+00
      20,    1.300000e+01,    2.256250e+01,    0.000000e+00
** ... 6363 like lines cut
**
********************************** E L E M E N T S ****************************
*ELEMENT, TYPE=S4R, ELSET=EB128
    3842,    1821,    1885,    4072,    3929
    3843,    3929,    4072,    4071,    3930
    3844,    3930,    4071,    4070,    3931
    3845,    3931,    4070,    4069,    3932
    3846,    3932,    4069,    4068,    3933
    3847,    3933,    4068,    4067,    3934
    3848,    3934,    4067,    4066,    3935
    3849,    3935,    4066,    4065,    3936
    3850,    3936,    4065,    4064,    3937
    3851,    3937,    4064,    4063,    3938
    3852,    3938,    4063,    4062,    3939
    3853,    3939,    4062,    4061,    3940
    3854,    3940,    4061,    4060,    3941
    3855,    3941,    4060,    4059,    3942
    3856,    3942,    4059,    4058,    3943
    3857,    3943,    4058,    4057,    3944
    3858,    3944,    4057,    4056,    3945
    3859,    3945,    4056,    4055,    3946
    3860,    3946,    4055,    1918,    1860
*ELEMENT, TYPE=S4R, ELSET=EB129
    3861,    1918,    4055,    4073,    1924
    3862,    4055,    4056,    4074,    4073
    3863,    4056,    4057,    4075,    4074
    3864,    4057,    4058,    4076,    4075
    3865,    4058,    4059,    4077,    4076
    3866,    4059,    4060,    4078,    4077
    3867,    4060,    4061,    4079,    4078
    3868,    4061,    4062,    4080,    4079
    3869,    4062,    4063,    4081,    4080
    3870,    4063,    4064,    4082,    4081
    3871,    4064,    4065,    4083,    4082
    3872,    4065,    4066,    4084,    4083
    3873,    4066,    4067,    4085,    4084
    3874,    4067,    4068,    4086,    4085
    3875,    4068,    4069,    4087,    4086
    3876,    4069,    4070,    4088,    4087
    3877,    4070,    4071,    4089,    4088
    3878,    4071,    4072,    4090,    4089
    3879,    4072,    1885,    1897,    4090
    3880,    1924,    4073,    4091,    1923
** ... 113 like lines cut
*ELEMENT, TYPE=S4R, ELSET=EB6
       1,       1,       2,      23,      22
       2,       2,       4,      24,      23
       3,       4,       5,      25,      24
       4,       5,       6,      26,      25
       5,       6,       7,      27,      26
       6,       7,       8,      28,      27
       7,       8,       9,      29,      28
       8,       9,       3,      12,      29
       9,      22,      23,      30,      21
      10,      23,      24,      31,      30
      11,      24,      25,      32,      31
      12,      25,      26,      33,      32
      13,      26,      27,      34,      33
      14,      27,      28,      35,      34
      15,      28,      29,      36,      35
      16,      29,      12,      11,      36
      17,      21,      30,      20,      13
      18,      30,      31,      19,      20
      19,      31,      32,      18,      19
      20,      32,      33,      17,      18
** ... 4 like lines cut
*ELEMENT, TYPE=S4R, ELSET=EB7
      25,      37,      39,      59,      57
      26,      39,      40,      60,      59
      27,      40,      41,      61,      60
      28,      41,      42,      62,      61
      29,      42,      43,      63,      62
      30,      43,      44,      64,      63
      31,      44,      38,      65,      64
      32,      38,      45,      47,      65
      33,      57,      59,      66,      58
      34,      59,      60,      67,      66
      35,      60,      61,      68,      67
      36,      61,      62,      69,      68
      37,      62,      63,      70,      69
      38,      63,      64,      71,      70
      39,      64,      65,      72,      71
      40,      65,      47,      48,      72
      41,      58,      66,      56,      49
      42,      66,      67,      55,      56
      43,      67,      68,      54,      55
      44,      68,      69,      53,      54
** ... 4 like lines cut
*ELEMENT, TYPE=S4R, ELSET=EB9
      49,       1,      22,      91,      73
      50,      22,      21,      92,      91
      51,      21,      13,      81,      92
      52,      73,      91,      93,      85
      53,      91,      92,      94,      93
      54,      92,      81,      80,      94
      55,      85,      93,      95,      86
      56,      93,      94,      96,      95
      57,      94,      80,      79,      96
      58,      86,      95,      97,      87
      59,      95,      96,      98,      97
      60,      96,      79,      78,      98
      61,      87,      97,      99,      88
      62,      97,      98,     100,      99
      63,      98,      78,      77,     100
      64,      88,      99,     101,      89
      65,      99,     100,     102,     101
      66,     100,      77,      76,     102
      67,      89,     101,     103,      90
      68,     101,     102,     104,     103
** ... 4 like lines cut
*ELEMENT, TYPE=S4R, ELSET=EB10
      73,     105,     114,     123,     107
      74,     114,     115,     124,     123
      75,     115,     113,     122,     124
      76,     107,     123,     125,     108
      77,     123,     124,     126,     125
      78,     124,     122,     121,     126
      79,     108,     125,     127,     109
      80,     125,     126,     128,     127
      81,     126,     121,     120,     128
      82,     109,     127,     129,     110
      83,     127,     128,     130,     129
      84,     128,     120,     119,     130
      85,     110,     129,     131,     111
      86,     129,     130,     132,     131
      87,     130,     119,     118,     132
      88,     111,     131,     133,     112
      89,     131,     132,     134,     133
      90,     132,     118,     117,     134
      91,     112,     133,     135,     106
      92,     133,     134,     136,     135
** ... 4 like lines cut
*ELEMENT, TYPE=S4R, ELSET=EB11
      97,      10,      11,     211,     210
      98,      11,      12,     212,     211
      99,      12,       3,     213,     212
     100,       3,     137,     214,     213
     101,     137,     138,     215,     214
     102,     138,     139,     216,     215
     103,     139,     140,     217,     216
     104,     140,     141,     218,     217
     105,     141,     142,     219,     218
     106,     142,     143,     220,     219
     107,     143,     144,     221,     220
     108,     144,     145,     222,     221
     109,     145,     146,     223,     222
     110,     146,     147,     224,     223
     111,     147,     148,     225,     224
     112,     148,     149,     226,     225
     113,     149,     150,     227,     226
     114,     150,     151,     228,     227
     115,     151,     152,     229,     228
     116,     152,     153,     230,     229
** ... 380 like lines cut
*ELEMENT, TYPE=S4R, ELSET=EB12
     497,     571,     572,     589,     588
     498,     572,     573,     590,     589
     499,     573,     574,     591,     590
     500,     574,     575,     592,     591
     501,     575,     576,     593,     592
     502,     576,     577,     594,     593
     503,     577,     578,     595,     594
     504,     578,      82,      84,     595
     505,     588,     589,     596,     587
     506,     589,     590,     597,     596
     507,     590,     591,     598,     597
     508,     591,     592,     599,     598
     509,     592,     593,     600,     599
     510,     593,     594,     601,     600
     511,     594,     595,     602,     601
     512,     595,      84,      83,     602
     513,     587,     596,     586,     579
     514,     596,     597,     585,     586
     515,     597,     598,     584,     585
     516,     598,     599,     583,     584
** ... 4 like lines cut
*ELEMENT, TYPE=S4R, ELSET=EB14
     521,     105,     604,     621,     114
     522,     604,     605,     622,     621
     523,     605,     606,     623,     622
     524,     606,     607,     624,     623
     525,     607,     608,     625,     624
     526,     608,     609,     626,     625
     527,     609,     603,     627,     626
     528,     603,     610,     612,     627
     529,     114,     621,     628,     115
     530,     621,     622,     629,     628
     531,     622,     623,     630,     629
     532,     623,     624,     631,     630
     533,     624,     625,     632,     631
     534,     625,     626,     633,     632
     535,     626,     627,     634,     633
     536,     627,     612,     613,     634
     537,     115,     628,     620,     113
     538,     628,     629,     619,     620
     539,     629,     630,     618,     619
     540,     630,     631,     617,     618
** ... 4 like lines cut
*ELEMENT, TYPE=S4R, ELSET=EB15
     545,     635,     644,     653,     637
     546,     644,     645,     654,     653
     547,     645,     643,     652,     654
     548,     637,     653,     655,     638
     549,     653,     654,     656,     655
     550,     654,     652,     651,     656
     551,     638,     655,     657,     639
     552,     655,     656,     658,     657
     553,     656,     651,     650,     658
     554,     639,     657,     659,     640
     555,     657,     658,     660,     659
     556,     658,     650,     649,     660
     557,     640,     659,     661,     641
     558,     659,     660,     662,     661
     559,     660,     649,     648,     662
     560,     641,     661,     663,     642
     561,     661,     662,     664,     663
     562,     662,     648,     647,     664
     563,     642,     663,     665,     636
     564,     663,     664,     666,     665
** ... 4 like lines cut
*ELEMENT, TYPE=S4R, ELSET=EB17
     569,     571,     588,     685,     667
     570,     588,     587,     686,     685
     571,     587,     579,     675,     686
     572,     667,     685,     687,     679
     573,     685,     686,     688,     687
     574,     686,     675,     674,     688
     575,     679,     687,     689,     680
     576,     687,     688,     690,     689
     577,     688,     674,     673,     690
     578,     680,     689,     691,     681
     579,     689,     690,     692,     691
     580,     690,     673,     672,     692
     581,     681,     691,     693,     682
     582,     691,     692,     694,     693
     583,     692,     672,     671,     694
     584,     682,     693,     695,     683
     585,     693,     694,     696,     695
     586,     694,     671,     670,     696
     587,     683,     695,     697,     684
     588,     695,     696,     698,     697
** ... 4 like lines cut
*ELEMENT, TYPE=S4R, ELSET=EB18
     593,     699,     700,     717,     716
     594,     700,     701,     718,     717
     595,     701,     702,     719,     718
     596,     702,     703,     720,     719
     597,     703,     704,     721,     720
     598,     704,     705,     722,     721
     599,     705,     706,     723,     722
     600,     706,     676,     678,     723
     601,     716,     717,     724,     715
     602,     717,     718,     725,     724
     603,     718,     719,     726,     725
     604,     719,     720,     727,     726
     605,     720,     721,     728,     727
     606,     721,     722,     729,     728
     607,     722,     723,     730,     729
     608,     723,     678,     677,     730
     609,     715,     724,     714,     707
     610,     724,     725,     713,     714
     611,     725,     726,     712,     713
     612,     726,     727,     711,     712
** ... 4 like lines cut
*ELEMENT, TYPE=S4R, ELSET=EB20
     617,     635,     732,     749,     644
     618,     732,     733,     750,     749
     619,     733,     734,     751,     750
     620,     734,     735,     752,     751
     621,     735,     736,     753,     752
     622,     736,     737,     754,     753
     623,     737,     731,     755,     754
     624,     731,     738,     740,     755
     625,     644,     749,     756,     645
     626,     749,     750,     757,     756
     627,     750,     751,     758,     757
     628,     751,     752,     759,     758
     629,     752,     753,     760,     759
     630,     753,     754,     761,     760
     631,     754,     755,     762,     761
     632,     755,     740,     741,     762
     633,     645,     756,     748,     643
     634,     756,     757,     747,     748
     635,     757,     758,     746,     747
     636,     758,     759,     745,     746
** ... 4 like lines cut
*ELEMENT, TYPE=S4R, ELSET=EB21
    6626,     771,     780,    6227,    4740
    6627,     782,    6225,    6227,     780
    6625,     773,    4740,    6227,    6225
     644,     765,     781,     783,     766
     645,     781,     782,     784,     783
     646,     782,     780,     779,     784
     647,     766,     783,     785,     767
     648,     783,     784,     786,     785
     649,     784,     779,     778,     786
     650,     767,     785,     787,     768
     651,     785,     786,     788,     787
     652,     786,     778,     777,     788
     653,     768,     787,     789,     769
     654,     787,     788,     790,     789
     655,     788,     777,     776,     790
     656,     769,     789,     791,     770
     657,     789,     790,     792,     791
     658,     790,     776,     775,     792
     659,     770,     791,     793,     764
     660,     791,     792,     794,     793
** ... 10 like lines cut
*ELEMENT, TYPE=S4R, ELSET=EB23
     665,     699,     716,     813,     795
     666,     716,     715,     814,     813
     667,     715,     707,     803,     814
     668,     795,     813,     815,     807
     669,     813,     814,     816,     815
     670,     814,     803,     802,     816
     671,     807,     815,     817,     808
     672,     815,     816,     818,     817
     673,     816,     802,     801,     818
     674,     808,     817,     819,     809
     675,     817,     818,     820,     819
     676,     818,     801,     800,     820
     677,     809,     819,     821,     810
     678,     819,     820,     822,     821
     679,     820,     800,     799,     822
     680,     810,     821,     823,     811
     681,     821,     822,     824,     823
     682,     822,     799,     798,     824
     683,     811,     823,     825,     812
     684,     823,     824,     826,     825
** ... 10 like lines cut
*ELEMENT, TYPE=S4R, ELSET=EB24
    6092,     838,    5958,    5959,    5957
    6093,     839,    5954,    5959,    5958
    6091,     856,    5957,    5959,    4298
    6088,     839,    5955,    5956,    5954
    5905,     843,    5096,    5837,    4504
    6094,     856,    4303,    5961,    5957
    5904,     852,    4504,    5837,    5453
    5903,     845,    5453,    5837,    4490
    5902,     844,    4490,    5837,    5096
    6084,     840,    5952,    5953,    5951
    6083,     854,    5951,    5953,    5456
    6082,     853,    5456,    5953,    5449
    6097,     838,    5957,    5961,    5960
    6096,     837,    5960,    5961,    5158
    6095,     857,    5158,    5961,    4303
    6090,     855,    4298,    5959,    5954
    6089,     840,    5951,    5956,    5955
    6085,     841,    5449,    5953,    5952
    5901,     851,    5832,    5836,    4500
    5900,     806,    4500,    5836,    5835
** ... 76 like lines cut
*ELEMENT, TYPE=S4R, ELSET=EB26
    5307,     869,    4275,    5404,    4737
    5295,     888,    5394,    5396,    4589
    4922,     860,    5093,    5095,    4497
    5296,     872,    5395,    5396,    5394
    5298,     888,    4593,    5399,    5394
    5297,     873,    4745,    5396,    5395
    5377,     878,    5094,    5461,    4330
    5376,     879,    4330,    5461,    4948
    5375,     862,    4948,    5461,    5460
    5309,     870,    5400,    5404,    5403
    5308,     867,    5403,    5404,    4275
    5306,     890,    4737,    5404,    5400
    5305,     871,    5397,    5402,    5401
    5304,     870,    5401,    5402,    5400
    5303,     890,    5400,    5402,    4596
    5302,     889,    4596,    5402,    5397
    5301,     872,    5394,    5399,    5398
    5374,     861,    5460,    5461,    5094
    5300,     871,    5398,    5399,    5397
    5299,     889,    5397,    5399,    4593
** ... 76 like lines cut
*ELEMENT, TYPE=S4R, ELSET=EB27
    5563,     905,    5605,    5606,    5598
    5848,     909,    5796,    5798,    4581
    5564,     904,    4911,    5606,    5605
    5562,     916,    5598,    5606,    5603
    5566,     909,    4580,    5609,    5608
    5565,     918,    5603,    5606,    4911
    5843,     899,    5794,    5795,    5793
    5842,     901,    5793,    5795,    4579
    5844,     908,    5790,    5795,    5794
    5845,     910,    4579,    5795,    5790
    5847,     900,    4581,    5798,    4653
    5838,     910,    5790,    5792,    5607
    5569,     911,    5608,    5609,    5032
    5568,     912,    5032,    5609,    5607
    5567,     910,    5607,    5609,    4580
    5841,     912,    5607,    5792,    5023
    5840,     907,    5023,    5792,    5791
    5846,     891,    4653,    5798,    5797
    5839,     908,    5791,    5792,    5790
    5853,     894,    5799,    5800,    5028
** ... 76 like lines cut
*ELEMENT, TYPE=S4R, ELSET=EB29
    5953,     940,    5863,    5864,    5671
    5948,     952,    5663,    5862,    5471
    5805,     949,    5756,    5762,    5761
    5949,     951,    5858,    5862,    5663
    5952,     953,    5671,    5864,    5666
    5951,     951,    5666,    5864,    5859
    5950,     939,    5859,    5864,    5863
    5947,     950,    5471,    5862,    5761
    5946,     949,    5761,    5862,    5858
    5944,     951,    5859,    5861,    5858
    5943,     949,    5858,    5861,    5757
    5804,     950,    5761,    5762,    5760
    5803,     948,    5760,    5762,    5478
    5802,     947,    5478,    5762,    5756
    5801,     938,    5758,    5759,    5757
    5800,     949,    5757,    5759,    5756
    5799,     947,    5756,    5759,    5474
    5945,     939,    5860,    5861,    5859
    5798,     937,    5474,    5759,    5758
    5942,     938,    5757,    5861,    5860
** ... 76 like lines cut
*ELEMENT, TYPE=S4R, ELSET=EB45
    6670,     964,    4334,    6249,     980
     786,     959,     958,     976,     975
     787,     958,     957,     977,     976
    6678,     960,     967,    6253,    5814
    6677,     961,    5814,    6253,    6251
     790,     975,     976,     979,     978
     791,     976,     977,     980,     979
    6679,     989,    6251,    6253,     967
    6674,     961,    6251,    6252,    4774
     794,     978,     979,     982,     981
     795,     979,     980,     983,     982
    6673,     983,    6248,    6250,     986
    6676,     962,    4774,    6252,     986
     798,     981,     982,     985,     984
     799,     982,     983,     986,     985
    6675,     989,     986,    6252,    6251
    6672,     962,     986,    6250,    4779
     802,     984,     985,     988,     987
     803,     985,     986,     989,     988
    6671,     963,    4779,    6250,    6248
** ... 28 like lines cut
*ELEMENT, TYPE=S4R, ELSET=EB47
    6649,     956,    5420,    6238,     959
     810,     957,     958,     996,     995
     811,     958,     959,     997,     996
    6646,     997,    6236,    6237,     996
    6647,     994,    6236,    6238,    5420
    6648,     997,     959,    6238,    6236
    6645,     993,     996,    6237,    5413
    6634,     990,    4362,    6232,    6231
    6635,     955,     957,    6232,    4362
    6636,     995,    6231,    6232,     957
    6637,     991,    4367,    6234,    5405
    6638,     990,    6231,    6234,    4367
    6639,     995,    6233,    6234,    6231
    6640,     992,    5405,    6234,    6233
    6641,     992,    6233,    6235,    5409
    6642,     995,     996,    6235,    6233
    6643,     993,    5409,    6235,     996
    6644,     994,    5413,    6237,    6236
*ELEMENT, TYPE=S4R, ELSET=EB49
    6833,    1009,    4433,    6331,    1012
     817,    1002,    1001,    1019,    1018
     818,    1001,    1000,    1020,    1019
    6822,    1015,    5563,    6327,    6326
    6827,    1016,    5575,    6328,    1027
     821,    1018,    1019,    1022,    1021
     822,    1019,    1020,    1023,    1022
    6829,    1016,    1027,    6330,    5578
    6828,    1017,    5578,    6330,    6329
     825,    1021,    1022,    1025,    1024
     826,    1022,    1023,    1026,    1025
    6830,    1030,    6329,    6330,    1027
    6832,    1030,    1012,    6331,    6329
     829,    1024,    1025,    1028,    1027
     830,    1025,    1026,    1029,    1028
    6831,    1017,    6329,    6331,    4433
    6826,    1024,    1027,    6328,    6326
     833,    1027,    1028,    1031,    1030
     834,    1028,    1029,    1032,    1031
    6825,    1015,    6326,    6328,    5575
** ... 28 like lines cut
*ELEMENT, TYPE=S4R, ELSET=EB51
    6813,    1072,    6320,    6322,    4521
     865,    1000,    1001,    1074,    1073
     866,    1001,    1002,    1075,    1074
    6811,    1071,    1074,    6321,    4517
    6812,    1075,    6320,    6321,    1074
    6815,     999,    4521,    6322,    1002
    6814,    1075,    1002,    6322,    6320
    6782,    1070,    6306,    6307,    5171
    6783,    1073,    1074,    6307,    6306
    6784,    1071,    5171,    6307,    1074
    6785,    1069,    5318,    6309,    5163
    6786,    1068,    6308,    6309,    5318
    6787,    1073,    6306,    6309,    6308
    6788,    1070,    5163,    6309,    6306
    6789,    1068,    5314,    6310,    6308
    6790,     998,    1000,    6310,    5314
    6791,    1073,    6308,    6310,    1000
    6810,    1072,    4517,    6321,    6320
*ELEMENT, TYPE=S4R, ELSET=EB53
    6934,    1052,    6381,    6383,    5818
     841,    1037,    1036,    1054,    1053
     842,    1036,    1035,    1055,    1054
    6927,    1059,    6378,    6379,    1056
    6928,    1050,    6378,    6380,    5021
     845,    1053,    1054,    1057,    1056
     846,    1054,    1055,    1058,    1057
    6935,    1065,    1047,    6383,    6381
    6933,    1065,    6381,    6382,    1062
     849,    1056,    1057,    1060,    1059
     850,    1057,    1058,    1061,    1060
    6932,    1051,    1062,    6382,    4343
    6931,    1052,    4343,    6382,    6381
     853,    1059,    1060,    1063,    1062
     854,    1060,    1061,    1064,    1063
    6930,    1051,    5021,    6380,    1062
    6929,    1059,    1062,    6380,    6378
     857,    1062,    1063,    1066,    1065
     858,    1063,    1064,    1067,    1066
    6926,    1049,    1056,    6379,    5017
** ... 28 like lines cut
*ELEMENT, TYPE=S4R, ELSET=EB55
    6918,    1034,    5253,    6374,    1037
     872,    1035,    1036,    1082,    1081
     873,    1036,    1037,    1083,    1082
    6916,    1080,    6372,    6374,    5253
    6917,    1083,    1037,    6374,    6372
    6915,    1083,    6372,    6373,    1082
    6914,    1079,    1082,    6373,    4691
    6903,    1076,    4570,    6368,    6367
    6904,    1033,    1035,    6368,    4570
    6905,    1081,    6367,    6368,    1035
    6906,    1077,    4574,    6370,    5006
    6907,    1076,    6367,    6370,    4574
    6908,    1081,    6369,    6370,    6367
    6909,    1078,    5006,    6370,    6369
    6910,    1078,    6369,    6371,    5010
    6911,    1081,    1082,    6371,    6369
    6912,    1079,    5010,    6371,    1082
    6913,    1080,    4691,    6373,    6372
*ELEMENT, TYPE=S4R, ELSET=EB57
    6770,    1100,    6298,    6300,    5119
     879,    1088,    1087,    1105,    1104
     880,    1087,    1086,    1106,    1105
    6779,    1095,    4407,    6305,    6304
    6778,    1103,    4546,    6303,    1116
     883,    1104,    1105,    1108,    1107
     884,    1105,    1106,    1109,    1108
    6777,    1113,    1116,    6303,    6301
    6776,    1102,    6301,    6303,    4546
     887,    1107,    1108,    1111,    1110
     888,    1108,    1109,    1112,    1111
    6775,    1113,    6301,    6302,    1110
    6774,    1101,    1110,    6302,    5122
     891,    1110,    1111,    1114,    1113
     892,    1111,    1112,    1115,    1114
    6773,    1102,    5122,    6302,    6301
    6772,    1101,    5119,    6300,    1110
     895,    1113,    1114,    1117,    1116
     896,    1114,    1115,    1118,    1117
    6771,    1107,    1110,    6300,    6298
** ... 28 like lines cut
*ELEMENT, TYPE=S4R, ELSET=EB59
    6763,    1088,    6295,    6296,    1196
     951,    1086,    1087,    1195,    1194
     952,    1087,    1088,    1196,    1195
    6760,    1193,    5107,    6294,    1196
    6759,    1195,    1196,    6294,    6292
    6762,    1193,    1196,    6296,    5256
    6761,    1085,    5256,    6296,    6295
    6731,    1084,    6280,    6281,    4974
    6732,    1086,    1194,    6281,    6280
    6733,    1189,    4974,    6281,    1194
    6752,    1190,    4978,    6291,    5099
    6753,    1189,    1194,    6291,    4978
    6754,    1191,    5099,    6291,    1194
    6755,    1192,    5103,    6293,    6292
    6756,    1191,    1194,    6293,    5103
    6757,    1195,    6292,    6293,    1194
    6758,    1192,    6292,    6294,    5107
*ELEMENT, TYPE=S4R, ELSET=EB61
    6728,    1130,    4768,    6279,    6278
     903,    1123,    1122,    1140,    1139
     904,    1122,    1121,    1141,    1140
    6721,    1136,    5167,    6274,    1145
    6725,    1137,    6275,    6277,    5176
     907,    1139,    1140,    1143,    1142
     908,    1140,    1141,    1144,    1143
    6727,    1138,    5176,    6277,    1151
    6726,    1148,    1151,    6277,    6275
     911,    1142,    1143,    1146,    1145
     912,    1143,    1144,    1147,    1146
    6730,    1133,    6278,    6279,    1151
    6729,    1138,    1151,    6279,    4768
     915,    1145,    1146,    1149,    1148
     916,    1146,    1147,    1150,    1149
    6720,    1142,    1145,    6274,    6272
    6719,    1135,    6272,    6274,    5167
     919,    1148,    1149,    1152,    1151
     920,    1149,    1150,    1153,    1152
    6724,    1148,    6275,    6276,    1145
** ... 28 like lines cut
*ELEMENT, TYPE=S4R, ELSET=EB63
    6712,    1123,    6269,    6270,    1204
     958,    1121,    1122,    1203,    1202
     959,    1122,    1123,    1204,    1203
    6709,    1201,    5987,    6268,    1204
    6710,    1120,    5990,    6270,    6269
    6708,    1203,    1204,    6268,    6266
    6711,    1201,    1204,    6270,    5990
    6680,    1119,    6254,    6255,    5309
    6681,    1121,    1202,    6255,    6254
    6682,    1197,    5309,    6255,    1202
    6701,    1198,    5312,    6265,    4849
    6702,    1197,    1202,    6265,    5312
    6703,    1199,    4849,    6265,    1202
    6704,    1200,    4853,    6267,    6266
    6705,    1199,    1202,    6267,    4853
    6706,    1203,    6266,    6267,    1202
    6707,    1200,    6266,    6268,    5987
*ELEMENT, TYPE=S4R, ELSET=EB65
    6873,    1165,    4759,    6352,    6351
     927,    1158,    1157,    1175,    1174
     928,    1157,    1156,    1176,    1175
    6883,    1166,    1188,    6357,    6356
    6878,    1162,    4444,    6354,    1182
     931,    1174,    1175,    1178,    1177
     932,    1175,    1176,    1179,    1178
    6877,    1185,    1182,    6354,    6353
    6876,    1161,    6353,    6354,    4444
     935,    1177,    1178,    1181,    1180
     936,    1178,    1179,    1182,    1181
    6884,    1160,    4754,    6357,    1188
    6875,    1168,    6351,    6352,    1186
     939,    1180,    1181,    1184,    1183
     940,    1181,    1182,    1185,    1184
    6874,    1173,    1186,    6352,    4759
    6882,    1159,    6356,    6357,    4754
     943,    1183,    1184,    1187,    1186
     944,    1184,    1185,    1188,    1187
    6881,    1185,    6353,    6355,    1188
** ... 28 like lines cut
*ELEMENT, TYPE=S4R, ELSET=EB67
    6857,    1158,    6342,    6343,    1212
     965,    1156,    1157,    1211,    1210
     966,    1157,    1158,    1212,    1211
    6853,    1211,    1212,    6341,    6339
    6854,    1209,    5265,    6341,    1212
    6856,    1209,    1212,    6343,    5271
    6855,    1155,    5271,    6343,    6342
    6843,    1154,    6335,    6337,    5075
    6844,    1156,    1210,    6337,    6335
    6845,    1205,    5075,    6337,    1210
    6846,    1206,    5079,    6338,    5087
    6847,    1205,    1210,    6338,    5079
    6848,    1207,    5087,    6338,    1210
    6849,    1208,    5090,    6340,    6339
    6850,    1207,    1210,    6340,    5090
    6851,    1211,    6339,    6340,    1210
    6852,    1208,    6339,    6341,    5265
*ELEMENT, TYPE=S4R, ELSET=EB68
    5750,    1366,    4983,    5734,    5731
    5749,    1465,    5729,    5732,    4679
    6182,    1446,    4515,    6007,    6004
    6181,    1492,    6002,    6005,    5595
    6180,    1493,    5595,    6005,    6004
    6179,    1446,    6004,    6005,    4510
    5939,    1477,    5258,    5857,    5382
    5938,    1476,    5382,    5857,    5855
    5937,    1507,    4715,    5856,    5153
    5935,    1476,    5855,    5856,    5379
    5934,    1508,    5379,    5856,    4715
    5933,    1501,    4677,    5854,    4672
    5759,    1369,    5737,    5738,    5105
    5758,    1368,    5105,    5738,    5735
    5757,    1468,    5733,    5736,    4705
    5756,    1469,    4705,    5736,    5735
    5755,    1368,    5735,    5736,    5101
    5936,    1526,    5153,    5856,    5855
    5753,    1467,    5731,    5734,    4701
    5752,    1468,    4701,    5734,    5733
** ... 1508 like lines cut
*ELEMENT, TYPE=S4R, ELSET=EB70
    5636,    1595,    5480,    5662,    4795
    5456,    1588,    5524,    5525,    4791
    5404,    1574,    5485,    5486,    5484
    5637,    1594,    5660,    5662,    5480
    5455,    1571,    4791,    5525,    5523
    5405,    1575,    5481,    5486,    5485
    5631,    1587,    5660,    5661,    5040
    5628,    1585,    4941,    5659,    4412
    5627,    1568,    4412,    5659,    5658
    5409,    1574,    5484,    5489,    5488
    5626,    1567,    5658,    5659,    5035
    5457,    1587,    5039,    5525,    5524
    5403,    1596,    5484,    5486,    4794
    5402,    1595,    4794,    5486,    5481
    5630,    1586,    5040,    5661,    4945
    5629,    1584,    5035,    5659,    4941
    5633,    1593,    4945,    5661,    4640
    5454,    1570,    5523,    5525,    5039
    5632,    1594,    4640,    5661,    5660
    5635,    1588,    4795,    5662,    5524
** ... 76 like lines cut
*ELEMENT, TYPE=S4R, ELSET=EB71
    6098,    1616,    5911,    5963,    5931
    6107,    1619,    5434,    5966,    5918
    6047,    1601,    5919,    5935,    5933
    6041,    1614,    5445,    5930,    5929
    6046,    1600,    5933,    5935,    5910
    6048,    1618,    5934,    5935,    5919
    6049,    1617,    5910,    5935,    5934
    6045,    1622,    5926,    5932,    5928
    6044,    1623,    5928,    5932,    5931
    6042,    1615,    5044,    5932,    5926
    6040,    1613,    5929,    5930,    4864
    6039,    1623,    4864,    5930,    5928
    6038,    1622,    5928,    5930,    5445
    6106,    1618,    5918,    5966,    5964
    6105,    1624,    5962,    5965,    4866
    6104,    1625,    4866,    5965,    5964
    6103,    1618,    5964,    5965,    5934
    6043,    1616,    5931,    5932,    5044
    6109,    1625,    5964,    5966,    5511
    6108,    1626,    5511,    5966,    5434
** ... 76 like lines cut
*ELEMENT, TYPE=S4R, ELSET=EB73
    6217,    1647,    4182,    6020,    5649
    5958,    1658,    4934,    5870,    5865
    5959,    1632,    5868,    5870,    4934
    5967,    1660,    5875,    5877,    5866
    5966,    1659,    5866,    5877,    5871
    5965,    1638,    5873,    5874,    5872
    6216,    1648,    5649,    6020,    5922
    6215,    1581,    5922,    6020,    4805
    6214,    1582,    4805,    6020,    4182
    6028,    1637,    5652,    5923,    5921
    5971,    1631,    5878,    5880,    5869
    5970,    1660,    5869,    5880,    5875
    5969,    1640,    5871,    5877,    5876
    5968,    1639,    5876,    5877,    5875
    6027,    1573,    5921,    5923,    4647
    6026,    1581,    4647,    5923,    5922
    5973,    1639,    5875,    5880,    5879
    6029,    1648,    5922,    5923,    5652
    5972,    1630,    5879,    5880,    5878
    5964,    1640,    5872,    5874,    5871
** ... 76 like lines cut
*ELEMENT, TYPE=S4R, ELSET=EB74
    6273,    1689,    6043,    6048,    6047
    6266,    1667,    5784,    6046,    6045
    6281,    1691,    6049,    6053,    5504
    6289,    1679,    5828,    6057,    5125
    6288,    1680,    5125,    6057,    5647
    6282,    1690,    5770,    6055,    6052
    6284,    1672,    5507,    6055,    6054
    6283,    1673,    6054,    6055,    5770
    6280,    1692,    5504,    6053,    6052
    6278,    1689,    6047,    6053,    6049
    6277,    1662,    6050,    6051,    5499
    6276,    1691,    5499,    6051,    6049
    6275,    1689,    6049,    6051,    6044
    6274,    1668,    6044,    6051,    6050
    6272,    1690,    6047,    6048,    5771
    6271,    1688,    5771,    6048,    5788
    6270,    1687,    5788,    6048,    6043
    6279,    1690,    6052,    6053,    6047
    6269,    1668,    6045,    6046,    6044
    6268,    1689,    6044,    6046,    6043
** ... 76 like lines cut
*ELEMENT, TYPE=S4R, ELSET=EB76
    1449,    1693,    1694,    1711,    1710
    1450,    1694,    1695,    1712,    1711
    1451,    1695,    1696,    1713,    1712
    1452,    1696,    1697,    1714,    1713
    1453,    1697,    1698,    1715,    1714
    1454,    1698,    1699,    1716,    1715
    1455,    1699,    1700,    1717,    1716
    6328,    1639,    5879,    6077,    1724
    1457,    1710,    1711,    1718,    1709
    1458,    1711,    1712,    1719,    1718
    1459,    1712,    1713,    1720,    1719
    1460,    1713,    1714,    1721,    1720
    1461,    1714,    1715,    1722,    1721
    1462,    1715,    1716,    1723,    1722
    1463,    1716,    1717,    1724,    1723
    6326,    1630,    6076,    6077,    5879
    1465,    1709,    1718,    1708,    1701
    1466,    1718,    1719,    1707,    1708
    1467,    1719,    1720,    1706,    1707
    1468,    1720,    1721,    1705,    1706
** ... 10 like lines cut
*ELEMENT, TYPE=S4R, ELSET=EB77
    6457,    1750,    1742,    6142,    6140
    1474,    1726,    1727,    1744,    1743
    1475,    1727,    1728,    1745,    1744
    1476,    1728,    1729,    1746,    1745
    1477,    1729,    1730,    1747,    1746
    1478,    1730,    1731,    1748,    1747
    1479,    1731,    1725,    1749,    1748
    1480,    1725,    1732,    1734,    1749
    6458,    1669,    5645,    6142,    1742
    1482,    1743,    1744,    1751,    1750
    1483,    1744,    1745,    1752,    1751
    1484,    1745,    1746,    1753,    1752
    1485,    1746,    1747,    1754,    1753
    1486,    1747,    1748,    1755,    1754
    1487,    1748,    1749,    1756,    1755
    1488,    1749,    1734,    1735,    1756
    6456,    1671,    6140,    6142,    5645
    1490,    1750,    1751,    1741,    1742
    1491,    1751,    1752,    1740,    1741
    1492,    1752,    1753,    1739,    1740
** ... 10 like lines cut
*ELEMENT, TYPE=S4R, ELSET=EB79
    1497,    1693,    1710,    1775,    1757
    1498,    1710,    1709,    1776,    1775
    1499,    1709,    1701,    1765,    1776
    1500,    1757,    1775,    1777,    1769
    1501,    1775,    1776,    1778,    1777
    1502,    1776,    1765,    1764,    1778
    1503,    1769,    1777,    1779,    1770
    1504,    1777,    1778,    1780,    1779
    1505,    1778,    1764,    1763,    1780
    1506,    1770,    1779,    1781,    1771
    1507,    1779,    1780,    1782,    1781
    1508,    1780,    1763,    1762,    1782
    1509,    1771,    1781,    1783,    1772
    1510,    1781,    1782,    1784,    1783
    1511,    1782,    1762,    1761,    1784
    1512,    1772,    1783,    1785,    1773
    1513,    1783,    1784,    1786,    1785
    1514,    1784,    1761,    1760,    1786
    1515,    1773,    1785,    1787,    1774
    1516,    1785,    1786,    1788,    1787
** ... 4 like lines cut
*ELEMENT, TYPE=S4R, ELSET=EB80
    1521,    1789,    1798,    1807,    1791
    1522,    1798,    1799,    1808,    1807
    1523,    1799,    1797,    1806,    1808
    1524,    1791,    1807,    1809,    1792
    1525,    1807,    1808,    1810,    1809
    1526,    1808,    1806,    1805,    1810
    1527,    1792,    1809,    1811,    1793
    1528,    1809,    1810,    1812,    1811
    1529,    1810,    1805,    1804,    1812
    1530,    1793,    1811,    1813,    1794
    1531,    1811,    1812,    1814,    1813
    1532,    1812,    1804,    1803,    1814
    1533,    1794,    1813,    1815,    1795
    1534,    1813,    1814,    1816,    1815
    1535,    1814,    1803,    1802,    1816
    1536,    1795,    1815,    1817,    1796
    1537,    1815,    1816,    1818,    1817
    1538,    1816,    1802,    1801,    1818
    1539,    1796,    1817,    1819,    1790
    1540,    1817,    1818,    1820,    1819
** ... 4 like lines cut
*ELEMENT, TYPE=S4R, ELSET=EB82
    1545,    1821,    1822,    1839,    1838
    1546,    1822,    1823,    1840,    1839
    1547,    1823,    1824,    1841,    1840
    1548,    1824,    1825,    1842,    1841
    1549,    1825,    1826,    1843,    1842
    1550,    1826,    1827,    1844,    1843
    1551,    1827,    1828,    1845,    1844
    1552,    1828,    1766,    1768,    1845
    1553,    1838,    1839,    1846,    1837
    1554,    1839,    1840,    1847,    1846
    1555,    1840,    1841,    1848,    1847
    1556,    1841,    1842,    1849,    1848
    1557,    1842,    1843,    1850,    1849
    1558,    1843,    1844,    1851,    1850
    1559,    1844,    1845,    1852,    1851
    1560,    1845,    1768,    1767,    1852
    1561,    1837,    1846,    1836,    1829
    1562,    1846,    1847,    1835,    1836
    1563,    1847,    1848,    1834,    1835
    1564,    1848,    1849,    1833,    1834
** ... 4 like lines cut
*ELEMENT, TYPE=S4R, ELSET=EB83
    1569,    1789,    1854,    1871,    1798
    1570,    1854,    1855,    1872,    1871
    1571,    1855,    1856,    1873,    1872
    1572,    1856,    1857,    1874,    1873
    1573,    1857,    1858,    1875,    1874
    1574,    1858,    1859,    1876,    1875
    1575,    1859,    1853,    1877,    1876
    1576,    1853,    1860,    1862,    1877
    1577,    1798,    1871,    1878,    1799
    1578,    1871,    1872,    1879,    1878
    1579,    1872,    1873,    1880,    1879
    1580,    1873,    1874,    1881,    1880
    1581,    1874,    1875,    1882,    1881
    1582,    1875,    1876,    1883,    1882
    1583,    1876,    1877,    1884,    1883
    1584,    1877,    1862,    1863,    1884
    1585,    1799,    1878,    1870,    1797
    1586,    1878,    1879,    1869,    1870
    1587,    1879,    1880,    1868,    1869
    1588,    1880,    1881,    1867,    1868
** ... 4 like lines cut
*ELEMENT, TYPE=S4R, ELSET=EB85
    1593,    1821,    1838,    1903,    1885
    1594,    1838,    1837,    1904,    1903
    1595,    1837,    1829,    1893,    1904
    1596,    1885,    1903,    1905,    1897
    1597,    1903,    1904,    1906,    1905
    1598,    1904,    1893,    1892,    1906
    1599,    1897,    1905,    1907,    1898
    1600,    1905,    1906,    1908,    1907
    1601,    1906,    1892,    1891,    1908
    1602,    1898,    1907,    1909,    1899
    1603,    1907,    1908,    1910,    1909
    1604,    1908,    1891,    1890,    1910
    1605,    1899,    1909,    1911,    1900
    1606,    1909,    1910,    1912,    1911
    1607,    1910,    1890,    1889,    1912
    1608,    1900,    1911,    1913,    1901
    1609,    1911,    1912,    1914,    1913
    1610,    1912,    1889,    1888,    1914
    1611,    1901,    1913,    1915,    1902
    1612,    1913,    1914,    1916,    1915
** ... 4 like lines cut
*ELEMENT, TYPE=S4R, ELSET=EB86
    1617,    1917,    1926,    1935,    1919
    1618,    1926,    1927,    1936,    1935
    1619,    1927,    1925,    1934,    1936
    1620,    1919,    1935,    1937,    1920
    1621,    1935,    1936,    1938,    1937
    1622,    1936,    1934,    1933,    1938
    1623,    1920,    1937,    1939,    1921
    1624,    1937,    1938,    1940,    1939
    1625,    1938,    1933,    1932,    1940
    1626,    1921,    1939,    1941,    1922
    1627,    1939,    1940,    1942,    1941
    1628,    1940,    1932,    1931,    1942
    1629,    1922,    1941,    1943,    1923
    1630,    1941,    1942,    1944,    1943
    1631,    1942,    1931,    1930,    1944
    1632,    1923,    1943,    1945,    1924
    1633,    1943,    1944,    1946,    1945
    1634,    1944,    1930,    1929,    1946
    1635,    1924,    1945,    1947,    1918
    1636,    1945,    1946,    1948,    1947
** ... 4 like lines cut
*ELEMENT, TYPE=S4R, ELSET=EB87
    1641,    1949,    1951,    2009,    2008
    1642,    1951,    1952,    2010,    2009
    1643,    1952,    1953,    2011,    2010
    1644,    1953,    1954,    2012,    2011
    1645,    1954,    1955,    2013,    2012
    1646,    1955,    1956,    2014,    2013
    1647,    1956,    1957,    2015,    2014
    1648,    1957,    1958,    2016,    2015
    1649,    1958,    1959,    2017,    2016
    1650,    1959,    1960,    2018,    2017
    1651,    1960,    1961,    2019,    2018
    1652,    1961,    1962,    2020,    2019
    1653,    1962,    1963,    2021,    2020
    1654,    1963,    1964,    2022,    2021
    1655,    1964,    1965,    2023,    2022
    1656,    1965,    1966,    2024,    2023
    1657,    1966,    1967,    2025,    2024
    1658,    1967,    1968,    2026,    2025
    1659,    1968,    1969,    2027,    2026
    1660,    1969,    1970,    2028,    2027
** ... 205 like lines cut
*ELEMENT, TYPE=S4R, ELSET=EB96
    1866,      45,      38,    2218,    2236
    1867,    2236,    2218,    2217,    2235
    1868,    2235,    2217,    2216,    2234
    1869,    2234,    2216,    2215,    2233
    1870,    2233,    2215,    2214,    2232
    1871,    2232,    2214,    2213,    2231
    1872,    2231,    2213,    2212,    2230
    1873,    2230,    2212,    2211,    2229
    1874,    2229,    2211,    2210,    2228
    1875,    2228,    2210,    2209,    2227
    1876,    2227,    2209,    2208,    2226
    1877,    2226,    2208,    2207,    2225
    1878,    2225,    2207,    2206,    2224
    1879,    2224,    2206,    2205,    2223
    1880,    2223,    2205,    2204,    2222
    1881,    2222,    2204,    2203,    2221
    1882,    2221,    2203,    2202,    2220
    1883,    2220,    2202,    2201,    2219
    1884,    2219,    2201,       2,       1
*ELEMENT, TYPE=S4R, ELSET=EB97
    1885,       2,    2201,    2237,       4
    1886,    2201,    2202,    2238,    2237
    1887,    2202,    2203,    2239,    2238
    1888,    2203,    2204,    2240,    2239
    1889,    2204,    2205,    2241,    2240
    1890,    2205,    2206,    2242,    2241
    1891,    2206,    2207,    2243,    2242
    1892,    2207,    2208,    2244,    2243
    1893,    2208,    2209,    2245,    2244
    1894,    2209,    2210,    2246,    2245
    1895,    2210,    2211,    2247,    2246
    1896,    2211,    2212,    2248,    2247
    1897,    2212,    2213,    2249,    2248
    1898,    2213,    2214,    2250,    2249
    1899,    2214,    2215,    2251,    2250
    1900,    2215,    2216,    2252,    2251
    1901,    2216,    2217,    2253,    2252
    1902,    2217,    2218,    2254,    2253
    1903,    2218,      38,      44,    2254
    1904,       4,    2237,    2255,       5
** ... 113 like lines cut
*ELEMENT, TYPE=S4R, ELSET=EB98
    2018,       1,      73,    2362,    2219
    2019,    2219,    2362,    2361,    2220
    2020,    2220,    2361,    2360,    2221
    2021,    2221,    2360,    2359,    2222
    2022,    2222,    2359,    2358,    2223
    2023,    2223,    2358,    2357,    2224
    2024,    2224,    2357,    2356,    2225
    2025,    2225,    2356,    2355,    2226
    2026,    2226,    2355,    2354,    2227
    2027,    2227,    2354,    2353,    2228
    2028,    2228,    2353,    2352,    2229
    2029,    2229,    2352,    2351,    2230
    2030,    2230,    2351,    2350,    2231
    2031,    2231,    2350,    2349,    2232
    2032,    2232,    2349,    2348,    2233
    2033,    2233,    2348,    2347,    2234
    2034,    2234,    2347,    2346,    2235
    2035,    2235,    2346,    2345,    2236
    2036,    2236,    2345,     106,      45
*ELEMENT, TYPE=S4R, ELSET=EB99
    2037,     106,    2345,    2381,     112
    2038,    2345,    2346,    2382,    2381
    2039,    2346,    2347,    2383,    2382
    2040,    2347,    2348,    2384,    2383
    2041,    2348,    2349,    2385,    2384
    2042,    2349,    2350,    2386,    2385
    2043,    2350,    2351,    2387,    2386
    2044,    2351,    2352,    2388,    2387
    2045,    2352,    2353,    2389,    2388
    2046,    2353,    2354,    2390,    2389
    2047,    2354,    2355,    2391,    2390
    2048,    2355,    2356,    2392,    2391
    2049,    2356,    2357,    2393,    2392
    2050,    2357,    2358,    2394,    2393
    2051,    2358,    2359,    2395,    2394
    2052,    2359,    2360,    2396,    2395
    2053,    2360,    2361,    2397,    2396
    2054,    2361,    2362,    2398,    2397
    2055,    2362,      73,      85,    2398
    2056,     112,    2381,    2399,     111
** ... 113 like lines cut
*ELEMENT, TYPE=S4R, ELSET=EB100
    2170,     610,     603,    2506,    2524
    2171,    2524,    2506,    2505,    2523
    2172,    2523,    2505,    2504,    2522
    2173,    2522,    2504,    2503,    2521
    2174,    2521,    2503,    2502,    2520
    2175,    2520,    2502,    2501,    2519
    2176,    2519,    2501,    2500,    2518
    2177,    2518,    2500,    2499,    2517
    2178,    2517,    2499,    2498,    2516
    2179,    2516,    2498,    2497,    2515
    2180,    2515,    2497,    2496,    2514
    2181,    2514,    2496,    2495,    2513
    2182,    2513,    2495,    2494,    2512
    2183,    2512,    2494,    2493,    2511
    2184,    2511,    2493,    2492,    2510
    2185,    2510,    2492,    2491,    2509
    2186,    2509,    2491,    2490,    2508
    2187,    2508,    2490,    2489,    2507
    2188,    2507,    2489,     572,     571
*ELEMENT, TYPE=S4R, ELSET=EB101
    2189,     572,    2489,    2525,     573
    2190,    2489,    2490,    2526,    2525
    2191,    2490,    2491,    2527,    2526
    2192,    2491,    2492,    2528,    2527
    2193,    2492,    2493,    2529,    2528
    2194,    2493,    2494,    2530,    2529
    2195,    2494,    2495,    2531,    2530
    2196,    2495,    2496,    2532,    2531
    2197,    2496,    2497,    2533,    2532
    2198,    2497,    2498,    2534,    2533
    2199,    2498,    2499,    2535,    2534
    2200,    2499,    2500,    2536,    2535
    2201,    2500,    2501,    2537,    2536
    2202,    2501,    2502,    2538,    2537
    2203,    2502,    2503,    2539,    2538
    2204,    2503,    2504,    2540,    2539
    2205,    2504,    2505,    2541,    2540
    2206,    2505,    2506,    2542,    2541
    2207,    2506,     603,     609,    2542
    2208,     573,    2525,    2543,     574
** ... 113 like lines cut
*ELEMENT, TYPE=S4R, ELSET=EB102
    2322,     571,     667,    2650,    2507
    2323,    2507,    2650,    2649,    2508
    2324,    2508,    2649,    2648,    2509
    2325,    2509,    2648,    2647,    2510
    2326,    2510,    2647,    2646,    2511
    2327,    2511,    2646,    2645,    2512
    2328,    2512,    2645,    2644,    2513
    2329,    2513,    2644,    2643,    2514
    2330,    2514,    2643,    2642,    2515
    2331,    2515,    2642,    2641,    2516
    2332,    2516,    2641,    2640,    2517
    2333,    2517,    2640,    2639,    2518
    2334,    2518,    2639,    2638,    2519
    2335,    2519,    2638,    2637,    2520
    2336,    2520,    2637,    2636,    2521
    2337,    2521,    2636,    2635,    2522
    2338,    2522,    2635,    2634,    2523
    2339,    2523,    2634,    2633,    2524
    2340,    2524,    2633,     636,     610
*ELEMENT, TYPE=S4R, ELSET=EB103
    2341,     636,    2633,    2669,     642
    2342,    2633,    2634,    2670,    2669
    2343,    2634,    2635,    2671,    2670
    2344,    2635,    2636,    2672,    2671
    2345,    2636,    2637,    2673,    2672
    2346,    2637,    2638,    2674,    2673
    2347,    2638,    2639,    2675,    2674
    2348,    2639,    2640,    2676,    2675
    2349,    2640,    2641,    2677,    2676
    2350,    2641,    2642,    2678,    2677
    2351,    2642,    2643,    2679,    2678
    2352,    2643,    2644,    2680,    2679
    2353,    2644,    2645,    2681,    2680
    2354,    2645,    2646,    2682,    2681
    2355,    2646,    2647,    2683,    2682
    2356,    2647,    2648,    2684,    2683
    2357,    2648,    2649,    2685,    2684
    2358,    2649,    2650,    2686,    2685
    2359,    2650,     667,     679,    2686
    2360,     642,    2669,    2687,     641
** ... 113 like lines cut
*ELEMENT, TYPE=S4R, ELSET=EB104
    2474,     738,     731,    2794,    2812
    2475,    2812,    2794,    2793,    2811
    2476,    2811,    2793,    2792,    2810
    2477,    2810,    2792,    2791,    2809
    2478,    2809,    2791,    2790,    2808
    2479,    2808,    2790,    2789,    2807
    2480,    2807,    2789,    2788,    2806
    2481,    2806,    2788,    2787,    2805
    2482,    2805,    2787,    2786,    2804
    2483,    2804,    2786,    2785,    2803
    2484,    2803,    2785,    2784,    2802
    2485,    2802,    2784,    2783,    2801
    2486,    2801,    2783,    2782,    2800
    2487,    2800,    2782,    2781,    2799
    2488,    2799,    2781,    2780,    2798
    2489,    2798,    2780,    2779,    2797
    2490,    2797,    2779,    2778,    2796
    2491,    2796,    2778,    2777,    2795
    2492,    2795,    2777,     700,     699
*ELEMENT, TYPE=S4R, ELSET=EB105
    2493,     700,    2777,    2813,     701
    2494,    2777,    2778,    2814,    2813
    2495,    2778,    2779,    2815,    2814
    2496,    2779,    2780,    2816,    2815
    2497,    2780,    2781,    2817,    2816
    2498,    2781,    2782,    2818,    2817
    2499,    2782,    2783,    2819,    2818
    2500,    2783,    2784,    2820,    2819
    2501,    2784,    2785,    2821,    2820
    2502,    2785,    2786,    2822,    2821
    2503,    2786,    2787,    2823,    2822
    2504,    2787,    2788,    2824,    2823
    2505,    2788,    2789,    2825,    2824
    2506,    2789,    2790,    2826,    2825
    2507,    2790,    2791,    2827,    2826
    2508,    2791,    2792,    2828,    2827
    2509,    2792,    2793,    2829,    2828
    2510,    2793,    2794,    2830,    2829
    2511,    2794,     731,     737,    2830
    2512,     701,    2813,    2831,     702
** ... 113 like lines cut
*ELEMENT, TYPE=S4R, ELSET=EB106
    2626,     699,     795,    2938,    2795
    2627,    2795,    2938,    2937,    2796
    2628,    2796,    2937,    2936,    2797
    2629,    2797,    2936,    2935,    2798
    2630,    2798,    2935,    2934,    2799
    2631,    2799,    2934,    2933,    2800
    2632,    2800,    2933,    2932,    2801
    2633,    2801,    2932,    2931,    2802
    2634,    2802,    2931,    2930,    2803
    2635,    2803,    2930,    2929,    2804
    2636,    2804,    2929,    2928,    2805
    2637,    2805,    2928,    2927,    2806
    2638,    2806,    2927,    2926,    2807
    2639,    2807,    2926,    2925,    2808
    2640,    2808,    2925,    2924,    2809
    2641,    2809,    2924,    2923,    2810
    2642,    2810,    2923,    2922,    2811
    2643,    2811,    2922,    2921,    2812
    2644,    2812,    2921,     764,     738
*ELEMENT, TYPE=S4R, ELSET=EB107
    2645,     764,    2921,    2957,     770
    2646,    2921,    2922,    2958,    2957
    2647,    2922,    2923,    2959,    2958
    2648,    2923,    2924,    2960,    2959
    2649,    2924,    2925,    2961,    2960
    2650,    2925,    2926,    2962,    2961
    2651,    2926,    2927,    2963,    2962
    2652,    2927,    2928,    2964,    2963
    2653,    2928,    2929,    2965,    2964
    2654,    2929,    2930,    2966,    2965
    2655,    2930,    2931,    2967,    2966
    2656,    2931,    2932,    2968,    2967
    2657,    2932,    2933,    2969,    2968
    2658,    2933,    2934,    2970,    2969
    2659,    2934,    2935,    2971,    2970
    2660,    2935,    2936,    2972,    2971
    2661,    2936,    2937,    2973,    2972
    2662,    2937,    2938,    2974,    2973
    2663,    2938,     795,     807,    2974
    2664,     770,    2957,    2975,     769
** ... 115 like lines cut
*ELEMENT, TYPE=S4R, ELSET=EB108
    6593,     859,    3082,    6210,    4314
    2779,    3100,    3082,    3081,    3099
    2780,    3099,    3081,    3080,    3098
    2781,    3098,    3080,    3079,    3097
    2782,    3097,    3079,    3078,    3096
    2783,    3096,    3078,    3077,    3095
    2784,    3095,    3077,    3076,    3094
    2785,    3094,    3076,    3075,    3093
    2786,    3093,    3075,    3074,    3092
    2787,    3092,    3074,    3073,    3091
    2788,    3091,    3073,    3072,    3090
    2789,    3090,    3072,    3071,    3089
    2790,    3089,    3071,    3070,    3088
    2791,    3088,    3070,    3069,    3087
    2792,    3087,    3069,    3068,    3086
    2793,    3086,    3068,    3067,    3085
    2794,    3085,    3067,    3066,    3084
    2795,    3084,    3066,    3065,    3083
    6594,    3100,    6208,    6210,    3082
    6489,     828,    4489,    6159,    6157
    6490,     827,    3083,    6159,    4489
    6491,    3065,    6157,    6159,    3083
    6592,     866,    4314,    6210,    6208
*ELEMENT, TYPE=S4R, ELSET=EB109
    6611,     860,    3208,    6219,    5093
    2798,    3065,    3066,    3102,    3101
    2799,    3066,    3067,    3103,    3102
    2800,    3067,    3068,    3104,    3103
    2801,    3068,    3069,    3105,    3104
    2802,    3069,    3070,    3106,    3105
    2803,    3070,    3071,    3107,    3106
    2804,    3071,    3072,    3108,    3107
    2805,    3072,    3073,    3109,    3108
    2806,    3073,    3074,    3110,    3109
    2807,    3074,    3075,    3111,    3110
    2808,    3075,    3076,    3112,    3111
    2809,    3076,    3077,    3113,    3112
    2810,    3077,    3078,    3114,    3113
    2811,    3078,    3079,    3115,    3114
    2812,    3079,    3080,    3116,    3115
    2813,    3080,    3081,    3117,    3116
    2814,    3081,    3082,    3118,    3117
    6615,     860,    4496,    6221,    3208
    6614,    2956,    3208,    6221,    6220
** ... 141 like lines cut
*ELEMENT, TYPE=S4R, ELSET=EB110
    6590,    3100,    3209,    6209,    6208
    2931,    3083,    3226,    3225,    3084
    2932,    3084,    3225,    3224,    3085
    2933,    3085,    3224,    3223,    3086
    2934,    3086,    3223,    3222,    3087
    2935,    3087,    3222,    3221,    3088
    2936,    3088,    3221,    3220,    3089
    2937,    3089,    3220,    3219,    3090
    2938,    3090,    3219,    3218,    3091
    2939,    3091,    3218,    3217,    3092
    2940,    3092,    3217,    3216,    3093
    2941,    3093,    3216,    3215,    3094
    2942,    3094,    3215,    3214,    3095
    2943,    3095,    3214,    3213,    3096
    2944,    3096,    3213,    3212,    3097
    2945,    3097,    3212,    3211,    3098
    2946,    3098,    3211,    3210,    3099
    2947,    3099,    3210,    3209,    3100
    6591,     892,    4269,    6209,    3209
    6492,     923,    6160,    6161,    4280
    6493,    3226,    3083,    6161,    6160
    6494,     827,    4280,    6161,    3083
    6589,     866,    6208,    6209,    4269
*ELEMENT, TYPE=S4R, ELSET=EB111
    6584,    3227,    3245,    6206,    6205
    2950,    3209,    3210,    3228,    3227
    2951,    3210,    3211,    3229,    3228
    2952,    3211,    3212,    3230,    3229
    2953,    3212,    3213,    3231,    3230
    2954,    3213,    3214,    3232,    3231
    2955,    3214,    3215,    3233,    3232
    2956,    3215,    3216,    3234,    3233
    2957,    3216,    3217,    3235,    3234
    2958,    3217,    3218,    3236,    3235
    2959,    3218,    3219,    3237,    3236
    2960,    3219,    3220,    3238,    3237
    2961,    3220,    3221,    3239,    3238
    2962,    3221,    3222,    3240,    3239
    2963,    3222,    3223,    3241,    3240
    2964,    3223,    3224,    3242,    3241
    2965,    3224,    3225,    3243,    3242
    2966,    3225,    3226,    3244,    3243
    6559,    1232,    5335,    6194,    6192
    6558,    1231,    5339,    6193,    3321
** ... 176 like lines cut
*ELEMENT, TYPE=S4R, ELSET=EB118
    6422,    3370,    6123,    6124,    3352
    3083,    3370,    3352,    3351,    3369
    3084,    3369,    3351,    3350,    3368
    3085,    3368,    3350,    3349,    3367
    3086,    3367,    3349,    3348,    3366
    3087,    3366,    3348,    3347,    3365
    3088,    3365,    3347,    3346,    3364
    3089,    3364,    3346,    3345,    3363
    3090,    3363,    3345,    3344,    3362
    3091,    3362,    3344,    3343,    3361
    3092,    3361,    3343,    3342,    3360
    3093,    3360,    3342,    3341,    3359
    3094,    3359,    3341,    3340,    3358
    3095,    3358,    3340,    3339,    3357
    3096,    3357,    3339,    3338,    3356
    3097,    3356,    3338,    3337,    3355
    3098,    3355,    3337,    3336,    3354
    3099,    3354,    3336,    3335,    3353
    6421,    1597,    3352,    6124,    5924
    6293,    1566,    4598,    6060,    6058
    6294,    1565,    3353,    6060,    4598
    6295,    3335,    6058,    6060,    3353
    6420,    1604,    5924,    6124,    6123
*ELEMENT, TYPE=S4R, ELSET=EB119
    6419,    1597,    5722,    6122,    3352
    3102,    3335,    3336,    3372,    3371
    3103,    3336,    3337,    3373,    3372
    3104,    3337,    3338,    3374,    3373
    3105,    3338,    3339,    3375,    3374
    3106,    3339,    3340,    3376,    3375
    3107,    3340,    3341,    3377,    3376
    3108,    3341,    3342,    3378,    3377
    3109,    3342,    3343,    3379,    3378
    3110,    3343,    3344,    3380,    3379
    3111,    3344,    3345,    3381,    3380
    3112,    3345,    3346,    3382,    3381
    3113,    3346,    3347,    3383,    3382
    3114,    3347,    3348,    3384,    3383
    3115,    3348,    3349,    3385,    3384
    3116,    3349,    3350,    3386,    3385
    3117,    3350,    3351,    3387,    3386
    3118,    3351,    3352,    3388,    3387
    6416,    3388,    6120,    6121,    3406
    6415,    1602,    3406,    6121,    5726
** ... 176 like lines cut
*ELEMENT, TYPE=S4R, ELSET=EB120
    6425,    1662,    5502,    6125,    3479
    3235,    3353,    3496,    3495,    3354
    3236,    3354,    3495,    3494,    3355
    3237,    3355,    3494,    3493,    3356
    3238,    3356,    3493,    3492,    3357
    3239,    3357,    3492,    3491,    3358
    3240,    3358,    3491,    3490,    3359
    3241,    3359,    3490,    3489,    3360
    3242,    3360,    3489,    3488,    3361
    3243,    3361,    3488,    3487,    3362
    3244,    3362,    3487,    3486,    3363
    3245,    3363,    3486,    3485,    3364
    3246,    3364,    3485,    3484,    3365
    3247,    3365,    3484,    3483,    3366
    3248,    3366,    3483,    3482,    3367
    3249,    3367,    3482,    3481,    3368
    3250,    3368,    3481,    3480,    3369
    3251,    3369,    3480,    3479,    3370
    6424,    3370,    3479,    6125,    6123
    6296,    1629,    6061,    6062,    4184
    6297,    3496,    3353,    6062,    6061
    6298,    1565,    4184,    6062,    3353
    6423,    1604,    6123,    6125,    5502
*ELEMENT, TYPE=S4R, ELSET=EB121
    6439,    1665,    3569,    6133,    5528
    3254,    3479,    3480,    3516,    3515
    3255,    3480,    3481,    3517,    3516
    3256,    3481,    3482,    3518,    3517
    3257,    3482,    3483,    3519,    3518
    3258,    3483,    3484,    3520,    3519
    3259,    3484,    3485,    3521,    3520
    3260,    3485,    3486,    3522,    3521
    3261,    3486,    3487,    3523,    3522
    3262,    3487,    3488,    3524,    3523
    3263,    3488,    3489,    3525,    3524
    3264,    3489,    3490,    3526,    3525
    3265,    3490,    3491,    3527,    3526
    3266,    3491,    3492,    3528,    3527
    3267,    3492,    3493,    3529,    3528
    3268,    3493,    3494,    3530,    3529
    3269,    3494,    3495,    3531,    3530
    3270,    3495,    3496,    3532,    3531
    6434,    3551,    6129,    6130,    3533
    6433,    1667,    3533,    6130,    5785
** ... 141 like lines cut
*ELEMENT, TYPE=S4R, ELSET=EB122
    3386,    1732,    1725,    3640,    3658
    3387,    3658,    3640,    3639,    3657
    3388,    3657,    3639,    3638,    3656
    3389,    3656,    3638,    3637,    3655
    3390,    3655,    3637,    3636,    3654
    3391,    3654,    3636,    3635,    3653
    3392,    3653,    3635,    3634,    3652
    3393,    3652,    3634,    3633,    3651
    3394,    3651,    3633,    3632,    3650
    3395,    3650,    3632,    3631,    3649
    3396,    3649,    3631,    3630,    3648
    3397,    3648,    3630,    3629,    3647
    3398,    3647,    3629,    3628,    3646
    3399,    3646,    3628,    3627,    3645
    3400,    3645,    3627,    3626,    3644
    3401,    3644,    3626,    3625,    3643
    3402,    3643,    3625,    3624,    3642
    3403,    3642,    3624,    3623,    3641
    3404,    3641,    3623,    1694,    1693
*ELEMENT, TYPE=S4R, ELSET=EB123
    3405,    1694,    3623,    3659,    1695
    3406,    3623,    3624,    3660,    3659
    3407,    3624,    3625,    3661,    3660
    3408,    3625,    3626,    3662,    3661
    3409,    3626,    3627,    3663,    3662
    3410,    3627,    3628,    3664,    3663
    3411,    3628,    3629,    3665,    3664
    3412,    3629,    3630,    3666,    3665
    3413,    3630,    3631,    3667,    3666
    3414,    3631,    3632,    3668,    3667
    3415,    3632,    3633,    3669,    3668
    3416,    3633,    3634,    3670,    3669
    3417,    3634,    3635,    3671,    3670
    3418,    3635,    3636,    3672,    3671
    3419,    3636,    3637,    3673,    3672
    3420,    3637,    3638,    3674,    3673
    3421,    3638,    3639,    3675,    3674
    3422,    3639,    3640,    3676,    3675
    3423,    3640,    1725,    1731,    3676
    3424,    1695,    3659,    3677,    1696
** ... 115 like lines cut
*ELEMENT, TYPE=S4R, ELSET=EB124
    3538,    1693,    1757,    3784,    3641
    3539,    3641,    3784,    3783,    3642
    3540,    3642,    3783,    3782,    3643
    3541,    3643,    3782,    3781,    3644
    3542,    3644,    3781,    3780,    3645
    3543,    3645,    3780,    3779,    3646
    3544,    3646,    3779,    3778,    3647
    3545,    3647,    3778,    3777,    3648
    3546,    3648,    3777,    3776,    3649
    3547,    3649,    3776,    3775,    3650
    3548,    3650,    3775,    3774,    3651
    3549,    3651,    3774,    3773,    3652
    3550,    3652,    3773,    3772,    3653
    3551,    3653,    3772,    3771,    3654
    3552,    3654,    3771,    3770,    3655
    3553,    3655,    3770,    3769,    3656
    3554,    3656,    3769,    3768,    3657
    3555,    3657,    3768,    3767,    3658
    3556,    3658,    3767,    1790,    1732
*ELEMENT, TYPE=S4R, ELSET=EB125
    3557,    1790,    3767,    3803,    1796
    3558,    3767,    3768,    3804,    3803
    3559,    3768,    3769,    3805,    3804
    3560,    3769,    3770,    3806,    3805
    3561,    3770,    3771,    3807,    3806
    3562,    3771,    3772,    3808,    3807
    3563,    3772,    3773,    3809,    3808
    3564,    3773,    3774,    3810,    3809
    3565,    3774,    3775,    3811,    3810
    3566,    3775,    3776,    3812,    3811
    3567,    3776,    3777,    3813,    3812
    3568,    3777,    3778,    3814,    3813
    3569,    3778,    3779,    3815,    3814
    3570,    3779,    3780,    3816,    3815
    3571,    3780,    3781,    3817,    3816
    3572,    3781,    3782,    3818,    3817
    3573,    3782,    3783,    3819,    3818
    3574,    3783,    3784,    3820,    3819
    3575,    3784,    1757,    1769,    3820
    3576,    1796,    3803,    3821,    1795
** ... 113 like lines cut
*ELEMENT, TYPE=S4R, ELSET=EB126
    3690,    1860,    1853,    3928,    3946
    3691,    3946,    3928,    3927,    3945
    3692,    3945,    3927,    3926,    3944
    3693,    3944,    3926,    3925,    3943
    3694,    3943,    3925,    3924,    3942
    3695,    3942,    3924,    3923,    3941
    3696,    3941,    3923,    3922,    3940
    3697,    3940,    3922,    3921,    3939
    3698,    3939,    3921,    3920,    3938
    3699,    3938,    3920,    3919,    3937
    3700,    3937,    3919,    3918,    3936
    3701,    3936,    3918,    3917,    3935
    3702,    3935,    3917,    3916,    3934
    3703,    3934,    3916,    3915,    3933
    3704,    3933,    3915,    3914,    3932
    3705,    3932,    3914,    3913,    3931
    3706,    3931,    3913,    3912,    3930
    3707,    3930,    3912,    3911,    3929
    3708,    3929,    3911,    1822,    1821
*ELEMENT, TYPE=S4R, ELSET=EB127
    3709,    1822,    3911,    3947,    1823
    3710,    3911,    3912,    3948,    3947
    3711,    3912,    3913,    3949,    3948
    3712,    3913,    3914,    3950,    3949
    3713,    3914,    3915,    3951,    3950
    3714,    3915,    3916,    3952,    3951
    3715,    3916,    3917,    3953,    3952
    3716,    3917,    3918,    3954,    3953
    3717,    3918,    3919,    3955,    3954
    3718,    3919,    3920,    3956,    3955
    3719,    3920,    3921,    3957,    3956
    3720,    3921,    3922,    3958,    3957
    3721,    3922,    3923,    3959,    3958
    3722,    3923,    3924,    3960,    3959
    3723,    3924,    3925,    3961,    3960
    3724,    3925,    3926,    3962,    3961
    3725,    3926,    3927,    3963,    3962
    3726,    3927,    3928,    3964,    3963
    3727,    3928,    1853,    1859,    3964
    3728,    1823,    3947,    3965,    1824
** ... 113 like lines cut
**
********************************** P R O P E R T I E S ************************
*SHELL SECTION, ELSET=EB128, SECTION INTEGRATION=SIMPSON, MATERIAL=Default-Steel
1.000000e+00
*SHELL SECTION, ELSET=EB129, SECTION INTEGRATION=SIMPSON, MATERIAL=Default-Steel
1.000000e+00
*SHELL SECTION, ELSET=EB6, SECTION INTEGRATION=SIMPSON, MATERIAL=Default-Steel
1.000000e+00
*SHELL SECTION, ELSET=EB7, SECTION INTEGRATION=SIMPSON, MATERIAL=Default-Steel
1.000000e+00
*SHELL SECTION, ELSET=EB9, SECTION INTEGRATION=SIMPSON, MATERIAL=Default-Steel
1.000000e+00
*SHELL SECTION, ELSET=EB10, SECTION INTEGRATION=SIMPSON, MATERIAL=Default-Steel
1.000000e+00
*SHELL SECTION, ELSET=EB11, SECTION INTEGRATION=SIMPSON, MATERIAL=Default-Steel
1.000000e+00
*SHELL SECTION, ELSET=EB12, SECTION INTEGRATION=SIMPSON, MATERIAL=Default-Steel
1.000000e+00
*SHELL SECTION, ELSET=EB14, SECTION INTEGRATION=SIMPSON, MATERIAL=Default-Steel
1.000000e+00
*SHELL SECTION, ELSET=EB15, SECTION INTEGRATION=SIMPSON, MATERIAL=Default-Steel
1.000000e+00
*SHELL SECTION, ELSET=EB17, SECTION INTEGRATION=SIMPSON, MATERIAL=Default-Steel
1.000000e+00
*SHELL SECTION, ELSET=EB18, SECTION INTEGRATION=SIMPSON, MATERIAL=Default-Steel
1.000000e+00
*SHELL SECTION, ELSET=EB20, SECTION INTEGRATION=SIMPSON, MATERIAL=Default-Steel
1.000000e+00
*SHELL SECTION, ELSET=EB21, SECTION INTEGRATION=SIMPSON, MATERIAL=Default-Steel
1.000000e+00
*SHELL SECTION, ELSET=EB23, SECTION INTEGRATION=SIMPSON, MATERIAL=Default-Steel
1.000000e+00
*SHELL SECTION, ELSET=EB24, SECTION INTEGRATION=SIMPSON, MATERIAL=Default-Steel
1.000000e+00
*SHELL SECTION, ELSET=EB26, SECTION INTEGRATION=SIMPSON, MATERIAL=Default-Steel
1.000000e+00
*SHELL SECTION, ELSET=EB27, SECTION INTEGRATION=SIMPSON, MATERIAL=Default-Steel
1.000000e+00
*SHELL SECTION, ELSET=EB29, SECTION INTEGRATION=SIMPSON, MATERIAL=Default-Steel
1.000000e+00
*SHELL SECTION, ELSET=EB45, SECTION INTEGRATION=SIMPSON, MATERIAL=Default-Steel
1.000000e+00
** ... 102 like lines cut
**
*END PART
**
**
**
********************************** E N D   P A R T S **********************************
**
**
********************************** A S S E M B L Y ************************************
**
*ASSEMBLY, NAME=ASSEMBLY1
**
*INSTANCE, NAME=Part-Default_1, PART=Part-Default
*END INSTANCE
**
*END ASSEMBLY
**
**
**
*MATERIAL, NAME = Default-Steel
*ELASTIC, TYPE=ISOTROPIC
2.068000e+05, 2.900000e-01
*DENSITY
7.000000e-06
*CONDUCTIVITY,TYPE=ISO
4.500000e-02
*SPECIFIC HEAT
5.000000e+02
**
**
************************************** H I S T O R Y *************************************
**
*PREPRINT
**
**************************************** S T E P 1 ***************************************
*STEP,INC=100,NAME=Default Set
**
*STATIC
1, 1, 1e-05, 1
**
**
**
**
*END STEP
