*HEADING
cubit(/home/wzhenlin/workspace/cubitMesh/2D/2D_R8_binder.inp): 01/16/2018: 21:53
version: 13.2
**
********************************** P A R T S **********************************
*PART, NAME=Part-Default
**
********************************** N O D E S **********************************
*NODE, NSET=ALLNODES
       1,    2.783882e+00,    2.350000e+01,    0.000000e+00
       2,    4.663690e+00,    2.250000e+01,    0.000000e+00
       3,    3.757204e+00,    2.306282e+01,    0.000000e+00
       4,    8.000000e+00,    1.600000e+01,    0.000000e+00
       5,    5.399748e+00,    2.190277e+01,    0.000000e+00
       6,    6.060002e+00,    2.122268e+01,    0.000000e+00
       7,    6.635183e+00,    2.046927e+01,    0.000000e+00
       8,    7.117216e+00,    1.965311e+01,    0.000000e+00
       9,    7.499334e+00,    1.878568e+01,    0.000000e+00
      10,    7.776173e+00,    1.787913e+01,    0.000000e+00
      11,    7.943846e+00,    1.694621e+01,    0.000000e+00
      12,    1.300000e+01,    1.600000e+01,    0.000000e+00
      13,    1.200000e+01,    1.600000e+01,    0.000000e+00
      14,    1.100000e+01,    1.600000e+01,    0.000000e+00
      15,    1.000000e+01,    1.600000e+01,    0.000000e+00
      16,    9.000000e+00,    1.600000e+01,    0.000000e+00
      17,    1.300000e+01,    2.350000e+01,    0.000000e+00
      18,    1.300000e+01,    1.693750e+01,    0.000000e+00
      19,    1.300000e+01,    1.787500e+01,    0.000000e+00
      20,    1.300000e+01,    1.881250e+01,    0.000000e+00
** ... 7644 like lines cut
**
********************************** E L E M E N T S ****************************
*ELEMENT, TYPE=S4R, ELSET=EB128
    4285,    4502,    2721,    2720,    4501
    4286,    4503,    2590,    2721,    4502
    4287,    4503,    4502,    4501,    4500
    4288,    4504,    4398,    2590,    4503
    4289,    4504,    4503,    4500,    4499
    4290,    4505,    4399,    4398,    4504
    4291,    4505,    4504,    4499,    4498
    4292,    4506,    4400,    4399,    4505
    4293,    4506,    4505,    4498,    4497
    4294,    4507,    4401,    4400,    4506
    4295,    4507,    4506,    4497,    4496
    4296,    4508,    4402,    4401,    4507
    4297,    4508,    4507,    4496,    4495
    4298,    4509,    2661,    4402,    4508
    4299,    4509,    4508,    4495,    4494
    4300,    2661,    4509,    4510,    2802
    4301,    4494,    4493,    4510,    4509
    4302,    2782,    2802,    4510,    4493
*ELEMENT, TYPE=S4R, ELSET=EB129
    4303,    2781,    2783,    4511,    2887
    4304,    2783,    2784,    4512,    4511
    4305,    2784,    2785,    4513,    4512
    4306,    2785,    2786,    4514,    4513
    4307,    2786,    2787,    4515,    4514
    4308,    2787,    2788,    4516,    4515
    4309,    2788,    2789,    4517,    4516
    4310,    2789,    2782,    4518,    4517
    4311,    2782,    4493,    4519,    4518
    4312,    4493,    4494,    4520,    4519
    4313,    4494,    4495,    4521,    4520
    4314,    4495,    4496,    4522,    4521
    4315,    4496,    4497,    4523,    4522
    4316,    4497,    4498,    4524,    4523
    4317,    4498,    4499,    4525,    4524
    4318,    4499,    4500,    4526,    4525
    4319,    4500,    4501,    4527,    4526
    4320,    4501,    2720,    4528,    4527
    4321,    2720,    2735,    4529,    4528
    4322,    2735,    2736,    4530,    4529
** ... 81 like lines cut
*ELEMENT, TYPE=S4R, ELSET=EB6
       1,      35,      34,       1,       3
       2,      36,      33,      34,      35
       3,      36,      35,       3,       2
       4,      37,      32,      33,      36
       5,      37,      36,       2,       5
       6,      32,      37,      38,      31
       7,      37,       5,       6,      38
       8,      17,      25,      39,      24
       9,      25,      26,      40,      39
      10,      26,      27,      41,      40
      11,      27,      28,      42,      41
      12,      28,      29,      43,      42
      13,      29,      30,      44,      43
      14,      30,      31,      38,      44
      15,      12,      18,      45,      13
      16,      18,      19,      46,      45
      17,      19,      20,      47,      46
      18,      20,      21,      48,      47
      19,      21,      22,      49,      48
      20,      22,      23,      50,      49
** ... 31 like lines cut
*ELEMENT, TYPE=S4R, ELSET=EB7
      52,     104,      80,      79,      82
      53,     105,      71,      80,     104
      54,     105,     104,      82,      83
      55,     106,      78,      71,     105
      56,     106,     105,      83,      84
      57,      78,     106,     107,      77
      58,     106,      84,      85,     107
      59,      85,      86,     108,     107
      60,      86,      87,     109,     108
      61,      87,      88,     110,     109
      62,      88,      89,     111,     110
      63,      89,      90,     112,     111
      64,      90,      91,     113,     112
      65,      91,      81,      93,     113
      66,      93,      94,     114,     113
      67,      94,      95,     115,     114
      68,      95,      96,     116,     115
      69,      96,      97,     117,     116
      70,      97,      98,     118,     117
      71,      98,      99,     119,     118
** ... 35 like lines cut
*ELEMENT, TYPE=S4R, ELSET=EB9
     107,     165,     144,       1,      34
     108,     166,     143,     144,     165
     109,     166,     165,      34,      33
     110,     167,     158,     143,     166
     111,     167,     166,      33,      32
     112,     158,     167,     168,     159
     113,     167,      32,      31,     168
     114,      31,      30,     169,     168
     115,      30,      29,     170,     169
     116,      29,      28,     171,     170
     117,      28,      27,     172,     171
     118,      27,      26,     173,     172
     119,      26,      25,     174,     173
     120,      25,      17,     152,     174
     121,     152,     151,     175,     174
     122,     151,     150,     176,     175
     123,     150,     149,     177,     176
     124,     149,     148,     178,     177
     125,     148,     147,     179,     178
     126,     147,     146,     180,     179
** ... 35 like lines cut
*ELEMENT, TYPE=S4R, ELSET=EB10
     162,     226,      82,      79,     225
     163,     227,      83,      82,     226
     164,     227,     226,     225,     205
     165,     228,      84,      83,     227
     166,     228,     227,     205,     212
     167,      84,     228,     229,      85
     168,     228,     212,     211,     229
     169,      81,      91,     230,     218
     170,      91,      90,     231,     230
     171,      90,      89,     232,     231
     172,      89,      88,     233,     232
     173,      88,      87,     234,     233
     174,      87,      86,     235,     234
     175,      86,      85,     229,     235
     176,     213,     224,     236,     217
     177,     224,     223,     237,     236
     178,     223,     222,     238,     237
     179,     222,     221,     239,     238
     180,     221,     220,     240,     239
     181,     220,     219,     241,     240
** ... 31 like lines cut
*ELEMENT, TYPE=S4R, ELSET=EB11
     213,      12,      13,     333,     332
     214,      13,      14,     334,     333
     215,      14,      15,     335,     334
     216,      15,      16,     336,     335
     217,      16,       4,     337,     336
     218,       4,     261,     338,     337
     219,     261,     262,     339,     338
     220,     262,     263,     340,     339
     221,     263,     264,     341,     340
     222,     264,     265,     342,     341
     223,     265,     266,     343,     342
     224,     266,     267,     344,     343
     225,     267,     268,     345,     344
     226,     268,     269,     346,     345
     227,     269,     270,     347,     346
     228,     270,     271,     348,     347
     229,     271,     272,     349,     348
     230,     272,     273,     350,     349
     231,     273,     274,     351,     350
     232,     274,     275,     352,     351
** ... 396 like lines cut
*ELEMENT, TYPE=S4R, ELSET=EB12
     629,     736,     735,     708,     710
     630,     737,     734,     735,     736
     631,     737,     736,     710,     709
     632,     738,     733,     734,     737
     633,     738,     737,     709,     711
     634,     733,     738,     739,     732
     635,     738,     711,     712,     739
     636,     718,     726,     740,     725
     637,     726,     727,     741,     740
     638,     727,     728,     742,     741
     639,     728,     729,     743,     742
     640,     729,     730,     744,     743
     641,     730,     731,     745,     744
     642,     731,     732,     739,     745
     643,     145,     719,     746,     154
     644,     719,     720,     747,     746
     645,     720,     721,     748,     747
     646,     721,     722,     749,     748
     647,     722,     723,     750,     749
     648,     723,     724,     751,     750
** ... 31 like lines cut
*ELEMENT, TYPE=S4R, ELSET=EB14
     680,     799,     780,     779,     782
     681,     800,     771,     780,     799
     682,     800,     799,     782,     783
     683,     801,     778,     771,     800
     684,     801,     800,     783,     784
     685,     778,     801,     802,     777
     686,     801,     784,     785,     802
     687,     785,     786,     803,     802
     688,     786,     787,     804,     803
     689,     787,     788,     805,     804
     690,     788,     789,     806,     805
     691,     789,     790,     807,     806
     692,     790,     791,     808,     807
     693,     791,     781,     792,     808
     694,     792,     793,     809,     808
     695,     793,     794,     810,     809
     696,     794,     795,     811,     810
     697,     795,     796,     812,     811
     698,     796,     797,     813,     812
     699,     797,     798,     814,     813
** ... 35 like lines cut
*ELEMENT, TYPE=S4R, ELSET=EB15
     735,     860,     782,     779,     859
     736,     861,     783,     782,     860
     737,     861,     860,     859,     839
     738,     862,     784,     783,     861
     739,     862,     861,     839,     846
     740,     784,     862,     863,     785
     741,     862,     846,     845,     863
     742,     781,     791,     864,     852
     743,     791,     790,     865,     864
     744,     790,     789,     866,     865
     745,     789,     788,     867,     866
     746,     788,     787,     868,     867
     747,     787,     786,     869,     868
     748,     786,     785,     863,     869
     749,     847,     858,     870,     851
     750,     858,     857,     871,     870
     751,     857,     856,     872,     871
     752,     856,     855,     873,     872
     753,     855,     854,     874,     873
     754,     854,     853,     875,     874
** ... 31 like lines cut
*ELEMENT, TYPE=S4R, ELSET=EB17
     786,     917,     896,     708,     735
     787,     918,     895,     896,     917
     788,     918,     917,     735,     734
     789,     919,     910,     895,     918
     790,     919,     918,     734,     733
     791,     910,     919,     920,     911
     792,     919,     733,     732,     920
     793,     732,     731,     921,     920
     794,     731,     730,     922,     921
     795,     730,     729,     923,     922
     796,     729,     728,     924,     923
     797,     728,     727,     925,     924
     798,     727,     726,     926,     925
     799,     726,     718,     904,     926
     800,     904,     903,     927,     926
     801,     903,     902,     928,     927
     802,     902,     901,     929,     928
     803,     901,     900,     930,     929
     804,     900,     899,     931,     930
     805,     899,     898,     932,     931
** ... 35 like lines cut
*ELEMENT, TYPE=S4R, ELSET=EB18
     841,     984,     983,     956,     958
     842,     985,     982,     983,     984
     843,     985,     984,     958,     957
     844,     986,     981,     982,     985
     845,     986,     985,     957,     959
     846,     981,     986,     987,     980
     847,     986,     959,     960,     987
     848,     966,     974,     988,     973
     849,     974,     975,     989,     988
     850,     975,     976,     990,     989
     851,     976,     977,     991,     990
     852,     977,     978,     992,     991
     853,     978,     979,     993,     992
     854,     979,     980,     987,     993
     855,     897,     967,     994,     906
     856,     967,     968,     995,     994
     857,     968,     969,     996,     995
     858,     969,     970,     997,     996
     859,     970,     971,     998,     997
     860,     971,     972,     999,     998
** ... 31 like lines cut
*ELEMENT, TYPE=S4R, ELSET=EB20
     892,    1047,    1028,    1027,    1030
     893,    1048,    1019,    1028,    1047
     894,    1048,    1047,    1030,    1031
     895,    1049,    1026,    1019,    1048
     896,    1049,    1048,    1031,    1032
     897,    1026,    1049,    1050,    1025
     898,    1049,    1032,    1033,    1050
     899,    1033,    1034,    1051,    1050
     900,    1034,    1035,    1052,    1051
     901,    1035,    1036,    1053,    1052
     902,    1036,    1037,    1054,    1053
     903,    1037,    1038,    1055,    1054
     904,    1038,    1039,    1056,    1055
     905,    1039,    1029,    1040,    1056
     906,    1040,    1041,    1057,    1056
     907,    1041,    1042,    1058,    1057
     908,    1042,    1043,    1059,    1058
     909,    1043,    1044,    1060,    1059
     910,    1044,    1045,    1061,    1060
     911,    1045,    1046,    1062,    1061
** ... 35 like lines cut
*ELEMENT, TYPE=S4R, ELSET=EB21
     947,    1108,    1030,    1027,    1107
     948,    1109,    1031,    1030,    1108
     949,    1109,    1108,    1107,    1087
     950,    1110,    1032,    1031,    1109
     951,    1110,    1109,    1087,    1094
     952,    1032,    1110,    1111,    1033
     953,    1110,    1094,    1093,    1111
     954,    1029,    1039,    1112,    1100
     955,    1039,    1038,    1113,    1112
     956,    1038,    1037,    1114,    1113
     957,    1037,    1036,    1115,    1114
     958,    1036,    1035,    1116,    1115
     959,    1035,    1034,    1117,    1116
     960,    1034,    1033,    1111,    1117
    8004,    1088,    7400,    7401,    1128
     962,    1106,    1105,    1119,    1118
     963,    1105,    1104,    1120,    1119
     964,    1104,    1103,    1121,    1120
     965,    1103,    1102,    1122,    1121
     966,    1102,    1101,    1123,    1122
** ... 41 like lines cut
*ELEMENT, TYPE=S4R, ELSET=EB23
     998,    1165,    1144,     956,     983
     999,    1166,    1143,    1144,    1165
    1000,    1166,    1165,     983,     982
    1001,    1167,    1158,    1143,    1166
    1002,    1167,    1166,     982,     981
    1003,    1158,    1167,    1168,    1159
    1004,    1167,     981,     980,    1168
    1005,     980,     979,    1169,    1168
    1006,     979,     978,    1170,    1169
    1007,     978,     977,    1171,    1170
    1008,     977,     976,    1172,    1171
    1009,     976,     975,    1173,    1172
    1010,     975,     974,    1174,    1173
    1011,     974,     966,    1152,    1174
    1012,    1152,    1151,    1175,    1174
    1013,    1151,    1150,    1176,    1175
    1014,    1150,    1149,    1177,    1176
    1015,    1149,    1148,    1178,    1177
    1016,    1148,    1147,    1179,    1178
    1017,    1147,    1146,    1180,    1179
** ... 45 like lines cut
*ELEMENT, TYPE=S4R, ELSET=EB24
    5178,    1257,    4618,    5265,    5219
    5177,    1245,    5219,    5265,    5190
    5176,    1244,    5190,    5265,    5263
    5175,    1255,    5261,    5264,    4614
    5174,    1256,    4614,    5264,    5263
    5173,    1244,    5263,    5264,    5215
    5172,    1243,    5215,    5264,    5261
    5171,    1254,    5259,    5262,    5157
    5170,    1255,    5157,    5262,    5261
    5168,    1242,    5212,    5262,    5259
    5167,    1254,    5256,    5260,    5259
    5166,    1242,    5259,    5260,    5207
    5165,    1154,    5207,    5260,    5258
    5164,    1155,    5258,    5260,    5256
    5163,    1253,    5253,    5257,    5156
    5162,    1254,    5156,    5257,    5256
    5161,    1155,    5256,    5257,    5255
    5169,    1243,    5261,    5262,    5212
    5159,    1252,    5250,    5254,    5152
    5157,    1156,    5253,    5254,    5252
** ... 184 like lines cut
*ELEMENT, TYPE=S4R, ELSET=EB26
    5324,    1333,    5367,    5369,    5363
    5323,    1330,    5367,    5368,    5353
    5322,    1329,    5353,    5368,    5359
    5321,    1332,    5359,    5368,    5365
    5320,    1333,    5365,    5368,    5367
    5319,    1333,    5362,    5366,    5365
    5318,    1332,    5365,    5366,    5360
    5317,    1325,    5360,    5366,    4637
    5316,    1324,    4637,    5366,    5362
    5314,    1333,    5363,    5364,    5362
    5326,    1331,    5345,    5369,    5356
    5313,    1324,    5362,    5364,    5270
    5312,    1323,    5270,    5364,    5347
    5311,    1325,    5277,    5361,    5360
    5310,    1332,    5360,    5361,    5359
    5309,    1329,    5359,    5361,    5350
    5308,    1326,    5350,    5361,    5277
    5315,    1328,    5347,    5364,    5363
    5305,    1322,    5337,    5358,    5330
    5303,    1330,    5352,    5357,    5356
** ... 200 like lines cut
*ELEMENT, TYPE=S4R, ELSET=EB27
    5345,    1363,    5078,    5375,    4972
    5344,    1362,    4972,    5375,    5057
    5331,    1386,    4930,    5370,    5069
    5330,    1379,    5069,    5370,    5045
    5329,    1378,    5045,    5370,    5039
    5328,    1377,    5039,    5370,    4930
    4943,    1372,    5077,    5080,    5015
    4942,    1359,    5015,    5080,    4980
    4941,    1365,    4980,    5080,    4978
    4939,    1385,    5078,    5079,    4927
    4938,    1372,    4927,    5079,    5077
    4937,    1364,    5077,    5079,    4975
    4936,    1363,    4975,    5079,    5078
    4935,    1388,    5066,    5076,    5074
    4934,    1390,    5074,    5076,    5072
    4933,    1387,    5072,    5076,    5004
    4932,    1389,    5004,    5076,    5066
    4940,    1364,    4978,    5080,    5077
    4930,    1390,    5071,    5075,    5074
    4928,    1382,    5063,    5075,    4996
** ... 184 like lines cut
*ELEMENT, TYPE=S4R, ELSET=EB29
    5011,    1423,    5137,    5141,    4763
    5010,    1424,    4763,    5141,    5140
    5009,    1398,    5140,    5141,    5139
    5008,    1399,    5139,    5141,    5137
    5007,    1422,    5134,    5138,    4758
    5006,    1423,    4758,    5138,    5137
    5005,    1399,    5137,    5138,    5136
    5004,    1400,    5136,    5138,    5134
    5003,    1422,    5129,    5135,    5134
    5001,    1214,    5133,    5135,    5132
    4990,    1426,    5122,    5124,    5121
    4989,    1396,    5121,    5124,    5120
    5000,    1222,    5132,    5135,    5129
    4999,    1421,    5130,    5131,    4761
    4998,    1422,    4761,    5131,    5129
    4997,    1222,    5129,    5131,    5128
    4996,    1223,    5128,    5131,    5130
    5002,    1400,    5134,    5135,    5133
    4994,    1419,    5081,    5127,    5126
    4992,    1226,    5125,    5127,    5117
** ... 200 like lines cut
*ELEMENT, TYPE=S4R, ELSET=EB45
    8258,    1471,    6202,    7533,    7532
    1266,    1456,    1455,    1473,    1472
    1267,    1455,    1454,    1474,    1473
    8263,    1463,    6206,    7534,    1466
    8262,    1484,    1466,    7534,    7532
    1270,    1472,    1473,    1476,    1475
    1271,    1473,    1474,    1477,    1476
    8261,    1471,    7532,    7534,    6206
    8260,    1484,    7532,    7533,    1481
    1274,    1475,    1476,    1479,    1478
    1275,    1476,    1477,    1480,    1479
    8259,    1470,    1481,    7533,    6202
    8256,    1478,    1481,    7531,    7529
    1278,    1478,    1479,    1482,    1481
    1279,    1479,    1480,    1483,    1482
    8255,    1469,    7529,    7531,    6198
    8254,    1478,    7529,    7530,    1475
    1282,    1481,    1482,    1485,    1484
    1283,    1482,    1483,    1486,    1485
    8253,    1468,    1475,    7530,    6194
** ... 28 like lines cut
*ELEMENT, TYPE=S4R, ELSET=EB47
    8244,    1494,    1456,    7525,    7523
    1290,    1454,    1455,    1493,    1492
    1291,    1455,    1456,    1494,    1493
    8243,    1491,    7523,    7525,    6182
    8242,    1494,    7523,    7524,    1493
    8245,    1453,    6182,    7525,    1456
    8241,    1490,    1493,    7524,    6174
    8212,    1489,    7509,    7510,    6170
    8213,    1492,    1493,    7510,    7509
    8214,    1490,    6170,    7510,    1493
    8215,    1488,    6158,    7512,    6166
    8216,    1487,    7511,    7512,    6158
    8217,    1492,    7509,    7512,    7511
    8218,    1489,    6166,    7512,    7509
    8219,    1487,    6154,    7513,    7511
    8220,    1452,    1454,    7513,    6154
    8221,    1492,    7511,    7513,    1454
    8240,    1491,    6174,    7524,    7523
*ELEMENT, TYPE=S4R, ELSET=EB49
    8306,    1513,    6847,    7557,    7556
    1297,    1499,    1498,    1516,    1515
    1298,    1498,    1497,    1517,    1516
    8305,    1501,    6210,    7555,    1529
    8304,    1507,    1529,    7555,    7554
    1301,    1515,    1516,    1519,    1518
    1302,    1516,    1517,    1520,    1519
    8303,    1500,    7554,    7555,    6210
    8314,    1509,    7559,    7560,    1527
    1305,    1518,    1519,    1522,    1521
    1306,    1519,    1520,    1523,    1522
    8313,    1514,    1527,    7560,    6216
    8312,    1506,    6216,    7560,    7559
    1309,    1521,    1522,    1525,    1524
    1310,    1522,    1523,    1526,    1525
    8311,    1514,    6850,    7558,    1527
    8310,    1524,    1527,    7558,    7556
    1313,    1524,    1525,    1528,    1527
    1314,    1525,    1526,    1529,    1528
    8309,    1513,    7556,    7558,    6850
** ... 28 like lines cut
*ELEMENT, TYPE=S4R, ELSET=EB51
    8285,    1495,    7545,    7546,    6581
    1345,    1497,    1498,    1571,    1570
    1346,    1498,    1499,    1572,    1571
    8284,    1567,    6689,    7544,    1570
    8283,    1565,    1570,    7544,    6584
    8287,    1565,    6581,    7546,    1570
    8286,    1497,    1570,    7546,    7545
    8273,    1496,    6852,    7540,    7538
    8274,    1569,    1572,    7540,    6852
    8275,    1499,    7538,    7540,    1572
    8276,    1568,    7541,    7542,    6819
    8277,    1571,    1572,    7542,    7541
    8278,    1569,    6819,    7542,    1572
    8279,    1568,    6693,    7543,    7541
    8280,    1567,    1570,    7543,    6693
    8281,    1571,    7541,    7543,    1570
    8282,    1566,    6584,    7544,    6689
*ELEMENT, TYPE=S4R, ELSET=EB53
    8359,    1538,    6218,    7583,    1558
    1321,    1534,    1533,    1551,    1550
    1322,    1533,    1532,    1552,    1551
    8365,    1536,    6096,    7586,    1564
    8364,    1542,    1564,    7586,    7585
    1325,    1550,    1551,    1554,    1553
    1326,    1551,    1552,    1555,    1554
    8363,    1535,    7585,    7586,    6096
    8362,    1561,    7582,    7584,    1564
    1329,    1553,    1554,    1557,    1556
    1330,    1554,    1555,    1558,    1557
    8361,    1536,    1564,    7584,    6471
    8360,    1537,    6471,    7584,    7582
    1333,    1556,    1557,    1560,    1559
    1334,    1557,    1558,    1561,    1560
    8358,    1561,    1558,    7583,    7582
    8357,    1537,    7582,    7583,    6218
    1337,    1559,    1560,    1563,    1562
    1338,    1560,    1561,    1564,    1563
    8356,    1555,    7579,    7581,    1558
** ... 28 like lines cut
*ELEMENT, TYPE=S4R, ELSET=EB55
    8329,    1577,    6520,    7567,    1580
    1352,    1532,    1533,    1579,    1578
    1353,    1533,    1534,    1580,    1579
    8330,    1531,    6528,    7569,    7568
    8328,    1579,    1580,    7567,    7565
    8332,    1534,    7568,    7569,    1580
    8331,    1577,    1580,    7569,    6528
    8318,    1530,    7561,    7563,    6235
    8319,    1532,    1578,    7563,    7561
    8320,    1573,    6235,    7563,    1578
    8321,    1574,    6240,    7564,    6512
    8322,    1573,    1578,    7564,    6240
    8323,    1575,    6512,    7564,    1578
    8324,    1576,    6516,    7566,    7565
    8325,    1575,    1578,    7566,    6516
    8326,    1579,    7565,    7566,    1578
    8327,    1576,    7565,    7567,    6520
*ELEMENT, TYPE=S4R, ELSET=EB57
    8512,    1598,    1607,    7661,    6461
    1359,    1585,    1584,    1602,    1601
    1360,    1584,    1583,    1603,    1602
    8508,    1597,    7657,    7659,    6457
    8511,    1599,    6461,    7661,    7660
    1363,    1601,    1602,    1605,    1604
    1364,    1602,    1603,    1606,    1605
    8510,    1598,    6457,    7659,    1607
    8509,    1604,    1607,    7659,    7657
    1367,    1604,    1605,    1608,    1607
    1368,    1605,    1606,    1609,    1608
    8519,    1595,    7663,    7664,    1613
    8518,    1600,    1613,    7664,    5954
    1371,    1607,    1608,    1611,    1610
    1372,    1608,    1609,    1612,    1611
    8517,    1592,    5954,    7664,    7663
    8516,    1600,    6465,    7662,    1613
    1375,    1610,    1611,    1614,    1613
    1376,    1611,    1612,    1615,    1614
    8515,    1610,    1613,    7662,    7660
** ... 28 like lines cut
*ELEMENT, TYPE=S4R, ELSET=EB59
    8501,    1585,    7654,    7655,    1693
    1431,    1583,    1584,    1692,    1691
    1432,    1584,    1585,    1693,    1692
    8498,    1690,    6437,    7653,    1693
    8497,    1692,    1693,    7653,    7651
    8500,    1690,    1693,    7655,    6445
    8499,    1582,    6445,    7655,    7654
    8469,    1581,    7639,    7640,    6417
    8470,    1583,    1691,    7640,    7639
    8471,    1686,    6417,    7640,    1691
    8490,    1687,    6421,    7650,    6429
    8491,    1686,    1691,    7650,    6421
    8492,    1688,    6429,    7650,    1691
    8493,    1689,    6433,    7652,    7651
    8494,    1688,    1691,    7652,    6433
    8495,    1692,    7651,    7652,    1691
    8496,    1689,    7651,    7653,    6437
*ELEMENT, TYPE=S4R, ELSET=EB61
    8410,    1642,    1645,    7609,    7607
    1383,    1620,    1619,    1637,    1636
    1384,    1619,    1618,    1638,    1637
    8409,    1633,    7607,    7609,    6830
    8417,    1627,    6041,    7612,    1630
    1387,    1636,    1637,    1640,    1639
    1388,    1637,    1638,    1641,    1640
    8416,    1648,    1630,    7612,    7610
    8415,    1635,    7610,    7612,    6041
    1391,    1639,    1640,    1643,    1642
    1392,    1640,    1641,    1644,    1643
    8414,    1648,    7610,    7611,    1645
    8413,    1634,    1645,    7611,    6833
    1395,    1642,    1643,    1646,    1645
    1396,    1643,    1644,    1647,    1646
    8412,    1635,    6833,    7611,    7610
    8411,    1634,    6830,    7609,    1645
    1399,    1645,    1646,    1649,    1648
    1400,    1646,    1647,    1650,    1649
    8408,    1642,    7607,    7608,    1639
** ... 28 like lines cut
*ELEMENT, TYPE=S4R, ELSET=EB63
    8387,    1699,    7595,    7597,    1618
    1438,    1618,    1619,    1700,    1699
    1439,    1619,    1620,    1701,    1700
    8384,    1696,    6633,    7596,    7593
    8383,    1699,    7593,    7596,    7595
    8386,    1616,    1618,    7597,    6575
    8385,    1694,    6575,    7597,    7595
    8372,    1698,    7590,    7591,    6835
    8373,    1701,    1620,    7591,    7590
    8374,    1617,    6835,    7591,    1620
    8375,    1698,    6769,    7592,    7590
    8376,    1697,    1700,    7592,    6769
    8377,    1701,    7590,    7592,    1700
    8378,    1696,    7593,    7594,    6637
    8379,    1699,    1700,    7594,    7593
    8380,    1697,    6637,    7594,    1700
    8381,    1695,    6578,    7596,    6633
    8382,    1694,    7595,    7596,    6578
*ELEMENT, TYPE=S4R, ELSET=EB65
    8468,    1665,    7637,    7638,    1683
    1407,    1655,    1654,    1672,    1671
    1408,    1654,    1653,    1673,    1672
    8462,    1680,    7634,    7635,    1677
    8461,    1668,    1677,    7635,    6387
    1411,    1671,    1672,    1675,    1674
    1412,    1672,    1673,    1676,    1675
    8460,    1669,    6387,    7635,    7634
    8459,    1668,    6383,    7633,    1677
    1415,    1674,    1675,    1678,    1677
    1416,    1675,    1676,    1679,    1678
    8458,    1674,    1677,    7633,    7631
    8457,    1667,    7631,    7633,    6383
    1419,    1677,    1678,    1681,    1680
    1420,    1678,    1679,    1682,    1681
    8467,    1670,    1683,    7638,    6032
    8466,    1662,    6032,    7638,    7637
    1423,    1680,    1681,    1684,    1683
    1424,    1681,    1682,    1685,    1684
    8465,    1670,    6391,    7636,    1683
** ... 28 like lines cut
*ELEMENT, TYPE=S4R, ELSET=EB67
    8448,    1652,    6371,    7629,    7628
    1445,    1653,    1654,    1708,    1707
    1446,    1654,    1655,    1709,    1708
    8429,    1702,    6343,    7618,    1707
    8450,    1655,    7628,    7629,    1709
    8449,    1706,    1709,    7629,    6371
    8428,    1653,    1707,    7618,    7617
    8418,    1705,    7613,    7614,    6363
    8419,    1708,    1709,    7614,    7613
    8420,    1706,    6363,    7614,    1709
    8421,    1705,    6359,    7615,    7613
    8422,    1704,    1707,    7615,    6359
    8423,    1708,    7613,    7615,    1707
    8424,    1703,    6347,    7616,    6355
    8425,    1702,    1707,    7616,    6347
    8426,    1704,    6355,    7616,    1707
    8427,    1651,    7617,    7618,    6343
*ELEMENT, TYPE=S4R, ELSET=EB68
    7767,    2084,    7276,    7278,    7236
    7766,    2085,    7236,    7278,    7234
    7765,    2093,    7234,    7278,    7271
    7764,    2092,    7271,    7278,    7276
    7763,    2063,    7150,    7277,    7230
    7762,    2084,    7230,    7277,    7276
    7761,    2092,    7276,    7277,    7274
    7760,    2083,    7274,    7277,    7150
    7759,    2083,    7153,    7275,    7274
    7757,    2090,    7272,    7275,    7267
    7755,    2092,    7272,    7273,    7271
    7754,    2093,    7271,    7273,    7228
    7753,    2091,    7228,    7273,    7269
    7752,    2090,    7269,    7273,    7272
    7751,    2090,    7266,    7270,    7269
    7750,    2091,    7269,    7270,    7224
    7749,    2089,    7224,    7270,    7261
    7758,    2092,    7274,    7275,    7272
    7747,    2082,    7156,    7268,    7267
    7756,    2082,    7267,    7275,    7153
** ... 1648 like lines cut
*ELEMENT, TYPE=S4R, ELSET=EB70
    5949,    2123,    5860,    5866,    5863
    5954,    2125,    5819,    5867,    4872
    5953,    2124,    4872,    5867,    5862
    5952,    2119,    5862,    5867,    5687
    5951,    2097,    4869,    5866,    5865
    5950,    2095,    5865,    5866,    5860
    6027,    2141,    5605,    5912,    4920
    6026,    2152,    4920,    5912,    5490
    6025,    2143,    5490,    5912,    5613
    6019,    2139,    5906,    5909,    5483
    6018,    2140,    5483,    5909,    5601
    6017,    2101,    5601,    5909,    5908
    6000,    2109,    5897,    5899,    5893
    5999,    2151,    5850,    5896,    5838
    5998,    2155,    5838,    5896,    5485
    5997,    2139,    5485,    5896,    5895
    5996,    2138,    5895,    5896,    5850
    6024,    2142,    5613,    5912,    5605
    5948,    2124,    5863,    5866,    4869
    5946,    2120,    5854,    5864,    5417
** ... 184 like lines cut
*ELEMENT, TYPE=S4R, ELSET=EB71
    5964,    2186,    5874,    5877,    5876
    5963,    2168,    5872,    5873,    5737
    5962,    2165,    5737,    5873,    5871
    5961,    2166,    5871,    5873,    5870
    5960,    2185,    5870,    5873,    5872
    5599,    2212,    5591,    5598,    5445
    5598,    2217,    5445,    5598,    5597
    5597,    2207,    5597,    5598,    5578
    5975,    2186,    5882,    5883,    5874
    6023,    2213,    5594,    5911,    5451
    6022,    2214,    5451,    5911,    5910
    6021,    2190,    5910,    5911,    5480
    6020,    2189,    5480,    5911,    5594
    5991,    2188,    5889,    5891,    5593
    5990,    2189,    5593,    5891,    5481
    5989,    2172,    5481,    5891,    5781
    5988,    2171,    5781,    5891,    5889
    6116,    2190,    5382,    5980,    5910
    6127,    2217,    5981,    5983,    5446
    6125,    2203,    5427,    5983,    4851
** ... 200 like lines cut
*ELEMENT, TYPE=S4R, ELSET=EB73
    6080,    2258,    5699,    5950,    5948
    6079,    2270,    5946,    5949,    5661
    6078,    2271,    5661,    5949,    5948
    6077,    2258,    5948,    5949,    5725
    6083,    2271,    5948,    5950,    5665
    6082,    2272,    5665,    5950,    5627
    6059,    2261,    5915,    5938,    5630
    6058,    2267,    5630,    5938,    5937
    6057,    2236,    5937,    5938,    5936
    6055,    2266,    5932,    5935,    5636
    6054,    2249,    5636,    5935,    5422
    6053,    2240,    5422,    5935,    5934
    6052,    2241,    5934,    5935,    5932
    6051,    2265,    5929,    5933,    5654
    6050,    2266,    5654,    5933,    5932
    6049,    2241,    5932,    5933,    5931
    6048,    2242,    5931,    5933,    5929
    6056,    2235,    5936,    5938,    5915
    6047,    2264,    5926,    5930,    5650
    6045,    2242,    5929,    5930,    5928
** ... 200 like lines cut
*ELEMENT, TYPE=S4R, ELSET=EB74
    5853,    2299,    5763,    5805,    5804
    5852,    2300,    5804,    5805,    5802
    5851,    2321,    5795,    5803,    5529
    5850,    2322,    5529,    5803,    5802
    5849,    2300,    5802,    5803,    5801
    5848,    2301,    5801,    5803,    5795
    5847,    2336,    5569,    5800,    5554
    5846,    2340,    5554,    5800,    5545
    5845,    2324,    5545,    5800,    5799
    5843,    2337,    5797,    5798,    5558
    5842,    2330,    5558,    5798,    5519
    5841,    2329,    5519,    5798,    5511
    5840,    2328,    5511,    5798,    5797
    5839,    2320,    5769,    5796,    5792
    5838,    2321,    5792,    5796,    5795
    5837,    2301,    5795,    5796,    5794
    5836,    2302,    5794,    5796,    5769
    5844,    2323,    5799,    5800,    5569
    5834,    2333,    5564,    5793,    5532
    5831,    2318,    5788,    5791,    5521
** ... 184 like lines cut
*ELEMENT, TYPE=S4R, ELSET=EB76
    2080,    2370,    2369,    2342,    2344
    2081,    2371,    2368,    2369,    2370
    2082,    2371,    2370,    2344,    2343
    2083,    2372,    2367,    2368,    2371
    2084,    2372,    2371,    2343,    2345
    2085,    2367,    2372,    2373,    2366
    2086,    2372,    2345,    2346,    2373
    2087,    2352,    2360,    2374,    2359
    2088,    2360,    2361,    2375,    2374
    2089,    2361,    2362,    2376,    2375
    2090,    2362,    2363,    2377,    2376
    2091,    2363,    2364,    2378,    2377
    2092,    2364,    2365,    2379,    2378
    2093,    2365,    2366,    2373,    2379
    7964,    2380,    2392,    7381,    7380
    2095,    2353,    2354,    2381,    2380
    2096,    2354,    2355,    2382,    2381
    2097,    2355,    2356,    2383,    2382
    2098,    2356,    2357,    2384,    2383
    2099,    2357,    2358,    2385,    2384
** ... 41 like lines cut
*ELEMENT, TYPE=S4R, ELSET=EB77
    2131,    2433,    2414,    2413,    2416
    2132,    2434,    2405,    2414,    2433
    2133,    2434,    2433,    2416,    2417
    2134,    2435,    2412,    2405,    2434
    2135,    2435,    2434,    2417,    2418
    2136,    2412,    2435,    2436,    2411
    2137,    2435,    2418,    2419,    2436
    2138,    2419,    2420,    2437,    2436
    2139,    2420,    2421,    2438,    2437
    2140,    2421,    2422,    2439,    2438
    2141,    2422,    2423,    2440,    2439
    2142,    2423,    2424,    2441,    2440
    2143,    2424,    2425,    2442,    2441
    2144,    2425,    2415,    2426,    2442
    2145,    2426,    2427,    2443,    2442
    2146,    2427,    2428,    2444,    2443
    2147,    2428,    2429,    2445,    2444
    2148,    2429,    2430,    2446,    2445
    2149,    2430,    2431,    2447,    2446
    2150,    2431,    2432,    2448,    2447
** ... 45 like lines cut
*ELEMENT, TYPE=S4R, ELSET=EB79
    2186,    2494,    2473,    2342,    2369
    2187,    2495,    2472,    2473,    2494
    2188,    2495,    2494,    2369,    2368
    2189,    2496,    2487,    2472,    2495
    2190,    2496,    2495,    2368,    2367
    2191,    2487,    2496,    2497,    2488
    2192,    2496,    2367,    2366,    2497
    2193,    2366,    2365,    2498,    2497
    2194,    2365,    2364,    2499,    2498
    2195,    2364,    2363,    2500,    2499
    2196,    2363,    2362,    2501,    2500
    2197,    2362,    2361,    2502,    2501
    2198,    2361,    2360,    2503,    2502
    2199,    2360,    2352,    2481,    2503
    2200,    2481,    2480,    2504,    2503
    2201,    2480,    2479,    2505,    2504
    2202,    2479,    2478,    2506,    2505
    2203,    2478,    2477,    2507,    2506
    2204,    2477,    2476,    2508,    2507
    2205,    2476,    2475,    2509,    2508
** ... 35 like lines cut
*ELEMENT, TYPE=S4R, ELSET=EB80
    2241,    2555,    2416,    2413,    2554
    2242,    2556,    2417,    2416,    2555
    2243,    2556,    2555,    2554,    2534
    2244,    2557,    2418,    2417,    2556
    2245,    2557,    2556,    2534,    2541
    2246,    2418,    2557,    2558,    2419
    2247,    2557,    2541,    2540,    2558
    2248,    2415,    2425,    2559,    2547
    2249,    2425,    2424,    2560,    2559
    2250,    2424,    2423,    2561,    2560
    2251,    2423,    2422,    2562,    2561
    2252,    2422,    2421,    2563,    2562
    2253,    2421,    2420,    2564,    2563
    2254,    2420,    2419,    2558,    2564
    2255,    2542,    2553,    2565,    2546
    2256,    2553,    2552,    2566,    2565
    2257,    2552,    2551,    2567,    2566
    2258,    2551,    2550,    2568,    2567
    2259,    2550,    2549,    2569,    2568
    2260,    2549,    2548,    2570,    2569
** ... 31 like lines cut
*ELEMENT, TYPE=S4R, ELSET=EB82
    2292,    2618,    2617,    2590,    2592
    2293,    2619,    2616,    2617,    2618
    2294,    2619,    2618,    2592,    2591
    2295,    2620,    2615,    2616,    2619
    2296,    2620,    2619,    2591,    2593
    2297,    2615,    2620,    2621,    2614
    2298,    2620,    2593,    2594,    2621
    2299,    2600,    2608,    2622,    2607
    2300,    2608,    2609,    2623,    2622
    2301,    2609,    2610,    2624,    2623
    2302,    2610,    2611,    2625,    2624
    2303,    2611,    2612,    2626,    2625
    2304,    2612,    2613,    2627,    2626
    2305,    2613,    2614,    2621,    2627
    2306,    2474,    2601,    2628,    2483
    2307,    2601,    2602,    2629,    2628
    2308,    2602,    2603,    2630,    2629
    2309,    2603,    2604,    2631,    2630
    2310,    2604,    2605,    2632,    2631
    2311,    2605,    2606,    2633,    2632
** ... 31 like lines cut
*ELEMENT, TYPE=S4R, ELSET=EB83
    2343,    2681,    2662,    2661,    2664
    2344,    2682,    2653,    2662,    2681
    2345,    2682,    2681,    2664,    2665
    2346,    2683,    2660,    2653,    2682
    2347,    2683,    2682,    2665,    2666
    2348,    2660,    2683,    2684,    2659
    2349,    2683,    2666,    2667,    2684
    2350,    2667,    2668,    2685,    2684
    2351,    2668,    2669,    2686,    2685
    2352,    2669,    2670,    2687,    2686
    2353,    2670,    2671,    2688,    2687
    2354,    2671,    2672,    2689,    2688
    2355,    2672,    2673,    2690,    2689
    2356,    2673,    2663,    2674,    2690
    2357,    2674,    2675,    2691,    2690
    2358,    2675,    2676,    2692,    2691
    2359,    2676,    2677,    2693,    2692
    2360,    2677,    2678,    2694,    2693
    2361,    2678,    2679,    2695,    2694
    2362,    2679,    2680,    2696,    2695
** ... 35 like lines cut
*ELEMENT, TYPE=S4R, ELSET=EB85
    2398,    2742,    2721,    2590,    2617
    2399,    2743,    2720,    2721,    2742
    2400,    2743,    2742,    2617,    2616
    2401,    2744,    2735,    2720,    2743
    2402,    2744,    2743,    2616,    2615
    2403,    2735,    2744,    2745,    2736
    2404,    2744,    2615,    2614,    2745
    2405,    2614,    2613,    2746,    2745
    2406,    2613,    2612,    2747,    2746
    2407,    2612,    2611,    2748,    2747
    2408,    2611,    2610,    2749,    2748
    2409,    2610,    2609,    2750,    2749
    2410,    2609,    2608,    2751,    2750
    2411,    2608,    2600,    2729,    2751
    2412,    2729,    2728,    2752,    2751
    2413,    2728,    2727,    2753,    2752
    2414,    2727,    2726,    2754,    2753
    2415,    2726,    2725,    2755,    2754
    2416,    2725,    2724,    2756,    2755
    2417,    2724,    2723,    2757,    2756
** ... 35 like lines cut
*ELEMENT, TYPE=S4R, ELSET=EB86
    2453,    2803,    2664,    2661,    2802
    2454,    2804,    2665,    2664,    2803
    2455,    2804,    2803,    2802,    2782
    2456,    2805,    2666,    2665,    2804
    2457,    2805,    2804,    2782,    2789
    2458,    2666,    2805,    2806,    2667
    2459,    2805,    2789,    2788,    2806
    2460,    2663,    2673,    2807,    2795
    2461,    2673,    2672,    2808,    2807
    2462,    2672,    2671,    2809,    2808
    2463,    2671,    2670,    2810,    2809
    2464,    2670,    2669,    2811,    2810
    2465,    2669,    2668,    2812,    2811
    2466,    2668,    2667,    2806,    2812
    2467,    2790,    2801,    2813,    2794
    2468,    2801,    2800,    2814,    2813
    2469,    2800,    2799,    2815,    2814
    2470,    2799,    2798,    2816,    2815
    2471,    2798,    2797,    2817,    2816
    2472,    2797,    2796,    2818,    2817
** ... 31 like lines cut
*ELEMENT, TYPE=S4R, ELSET=EB87
    2504,    2838,    2840,    2896,    2895
    2505,    2840,    2841,    2897,    2896
    2506,    2841,    2842,    2898,    2897
    2507,    2842,    2843,    2899,    2898
    2508,    2843,    2844,    2900,    2899
    2509,    2844,    2845,    2901,    2900
    2510,    2845,    2846,    2902,    2901
    2511,    2846,    2847,    2903,    2902
    2512,    2847,    2848,    2904,    2903
    2513,    2848,    2849,    2905,    2904
    2514,    2849,    2850,    2906,    2905
    2515,    2850,    2851,    2907,    2906
    2516,    2851,    2852,    2908,    2907
    2517,    2852,    2853,    2909,    2908
    2518,    2853,    2854,    2910,    2909
    2519,    2854,    2855,    2911,    2910
    2520,    2855,    2856,    2912,    2911
    2521,    2856,    2857,    2913,    2912
    2522,    2857,    2858,    2914,    2913
    2523,    2858,    2859,    2915,    2914
** ... 214 like lines cut
*ELEMENT, TYPE=S4R, ELSET=EB96
    2738,    3110,      80,      71,    3104
    2739,    3111,      79,      80,    3110
    2740,    3111,    3110,    3104,    3103
    2741,    3112,    3109,      79,    3111
    2742,    3112,    3111,    3103,    3102
    2743,    3113,    3108,    3109,    3112
    2744,    3113,    3112,    3102,    3101
    2745,    3114,    3107,    3108,    3113
    2746,    3114,    3113,    3101,    3100
    2747,    3115,    3106,    3107,    3114
    2748,    3115,    3114,    3100,    3099
    2749,    3116,    3105,    3106,    3115
    2750,    3116,    3115,    3099,    3098
    2751,    3117,       1,    3105,    3116
    2752,    3117,    3116,    3098,    3097
    2753,       1,    3117,    3118,       3
    2754,    3097,    3096,    3118,    3117
    2755,       2,       3,    3118,    3096
*ELEMENT, TYPE=S4R, ELSET=EB97
    2756,       4,      11,    3119,     261
    2757,      11,      10,    3120,    3119
    2758,      10,       9,    3121,    3120
    2759,       9,       8,    3122,    3121
    2760,       8,       7,    3123,    3122
    2761,       7,       6,    3124,    3123
    2762,       6,       5,    3125,    3124
    2763,       5,       2,    3126,    3125
    2764,       2,    3096,    3127,    3126
    2765,    3096,    3097,    3128,    3127
    2766,    3097,    3098,    3129,    3128
    2767,    3098,    3099,    3130,    3129
    2768,    3099,    3100,    3131,    3130
    2769,    3100,    3101,    3132,    3131
    2770,    3101,    3102,    3133,    3132
    2771,    3102,    3103,    3134,    3133
    2772,    3103,    3104,    3135,    3134
    2773,    3104,      71,    3136,    3135
    2774,      71,      78,    3137,    3136
    2775,      78,      77,    3138,    3137
** ... 81 like lines cut
*ELEMENT, TYPE=S4R, ELSET=EB98
    2857,    3209,     144,     143,    3208
    2858,    3210,       1,     144,    3209
    2859,    3210,    3209,    3208,    3207
    2860,    3211,    3105,       1,    3210
    2861,    3211,    3210,    3207,    3206
    2862,    3212,    3106,    3105,    3211
    2863,    3212,    3211,    3206,    3205
    2864,    3213,    3107,    3106,    3212
    2865,    3213,    3212,    3205,    3204
    2866,    3214,    3108,    3107,    3213
    2867,    3214,    3213,    3204,    3203
    2868,    3215,    3109,    3108,    3214
    2869,    3215,    3214,    3203,    3202
    2870,    3216,      79,    3109,    3215
    2871,    3216,    3215,    3202,    3201
    2872,      79,    3216,    3217,     225
    2873,    3201,    3200,    3217,    3216
    2874,     205,     225,    3217,    3200
*ELEMENT, TYPE=S4R, ELSET=EB99
    2875,     204,     206,    3233,    3232
    2876,     206,     207,    3234,    3233
    2877,     207,     208,    3235,    3234
    2878,     208,     209,    3236,    3235
    2879,     209,     210,    3237,    3236
    2880,     210,     211,    3238,    3237
    2881,     211,     212,    3239,    3238
    2882,     212,     205,    3240,    3239
    2883,     205,    3200,    3241,    3240
    2884,    3200,    3201,    3242,    3241
    2885,    3201,    3202,    3243,    3242
    2886,    3202,    3203,    3244,    3243
    2887,    3203,    3204,    3245,    3244
    2888,    3204,    3205,    3246,    3245
    2889,    3205,    3206,    3247,    3246
    2890,    3206,    3207,    3248,    3247
    2891,    3207,    3208,    3249,    3248
    2892,    3208,     143,    3250,    3249
    2893,     143,     158,    3251,    3250
    2894,     158,     159,    3252,    3251
** ... 81 like lines cut
*ELEMENT, TYPE=S4R, ELSET=EB100
    2976,    3328,     780,     771,    3322
    2977,    3329,     779,     780,    3328
    2978,    3329,    3328,    3322,    3321
    2979,    3330,    3327,     779,    3329
    2980,    3330,    3329,    3321,    3320
    2981,    3331,    3326,    3327,    3330
    2982,    3331,    3330,    3320,    3319
    2983,    3332,    3325,    3326,    3331
    2984,    3332,    3331,    3319,    3318
    2985,    3333,    3324,    3325,    3332
    2986,    3333,    3332,    3318,    3317
    2987,    3334,    3323,    3324,    3333
    2988,    3334,    3333,    3317,    3316
    2989,    3335,     708,    3323,    3334
    2990,    3335,    3334,    3316,    3315
    2991,     708,    3335,    3336,     710
    2992,    3315,    3314,    3336,    3335
    2993,     709,     710,    3336,    3314
*ELEMENT, TYPE=S4R, ELSET=EB101
    2994,     153,     717,    3337,    3218
    2995,     717,     716,    3338,    3337
    2996,     716,     715,    3339,    3338
    2997,     715,     714,    3340,    3339
    2998,     714,     713,    3341,    3340
    2999,     713,     712,    3342,    3341
    3000,     712,     711,    3343,    3342
    3001,     711,     709,    3344,    3343
    3002,     709,    3314,    3345,    3344
    3003,    3314,    3315,    3346,    3345
    3004,    3315,    3316,    3347,    3346
    3005,    3316,    3317,    3348,    3347
    3006,    3317,    3318,    3349,    3348
    3007,    3318,    3319,    3350,    3349
    3008,    3319,    3320,    3351,    3350
    3009,    3320,    3321,    3352,    3351
    3010,    3321,    3322,    3353,    3352
    3011,    3322,     771,    3354,    3353
    3012,     771,     778,    3355,    3354
    3013,     778,     777,    3356,    3355
** ... 81 like lines cut
*ELEMENT, TYPE=S4R, ELSET=EB102
    3095,    3427,     896,     895,    3426
    3096,    3428,     708,     896,    3427
    3097,    3428,    3427,    3426,    3425
    3098,    3429,    3323,     708,    3428
    3099,    3429,    3428,    3425,    3424
    3100,    3430,    3324,    3323,    3429
    3101,    3430,    3429,    3424,    3423
    3102,    3431,    3325,    3324,    3430
    3103,    3431,    3430,    3423,    3422
    3104,    3432,    3326,    3325,    3431
    3105,    3432,    3431,    3422,    3421
    3106,    3433,    3327,    3326,    3432
    3107,    3433,    3432,    3421,    3420
    3108,    3434,     779,    3327,    3433
    3109,    3434,    3433,    3420,    3419
    3110,     779,    3434,    3435,     859
    3111,    3419,    3418,    3435,    3434
    3112,     839,     859,    3435,    3418
*ELEMENT, TYPE=S4R, ELSET=EB103
    3113,     838,     840,    3451,    3450
    3114,     840,     841,    3452,    3451
    3115,     841,     842,    3453,    3452
    3116,     842,     843,    3454,    3453
    3117,     843,     844,    3455,    3454
    3118,     844,     845,    3456,    3455
    3119,     845,     846,    3457,    3456
    3120,     846,     839,    3458,    3457
    3121,     839,    3418,    3459,    3458
    3122,    3418,    3419,    3460,    3459
    3123,    3419,    3420,    3461,    3460
    3124,    3420,    3421,    3462,    3461
    3125,    3421,    3422,    3463,    3462
    3126,    3422,    3423,    3464,    3463
    3127,    3423,    3424,    3465,    3464
    3128,    3424,    3425,    3466,    3465
    3129,    3425,    3426,    3467,    3466
    3130,    3426,     895,    3468,    3467
    3131,     895,     910,    3469,    3468
    3132,     910,     911,    3470,    3469
** ... 81 like lines cut
*ELEMENT, TYPE=S4R, ELSET=EB104
    3214,    3546,    1028,    1019,    3540
    3215,    3547,    1027,    1028,    3546
    3216,    3547,    3546,    3540,    3539
    3217,    3548,    3545,    1027,    3547
    3218,    3548,    3547,    3539,    3538
    3219,    3549,    3544,    3545,    3548
    3220,    3549,    3548,    3538,    3537
    3221,    3550,    3543,    3544,    3549
    3222,    3550,    3549,    3537,    3536
    3223,    3551,    3542,    3543,    3550
    3224,    3551,    3550,    3536,    3535
    3225,    3552,    3541,    3542,    3551
    3226,    3552,    3551,    3535,    3534
    3227,    3553,     956,    3541,    3552
    3228,    3553,    3552,    3534,    3533
    3229,     956,    3553,    3554,     958
    3230,    3533,    3532,    3554,    3553
    3231,     957,     958,    3554,    3532
*ELEMENT, TYPE=S4R, ELSET=EB105
    3232,     905,     965,    3555,    3436
    3233,     965,     964,    3556,    3555
    3234,     964,     963,    3557,    3556
    3235,     963,     962,    3558,    3557
    3236,     962,     961,    3559,    3558
    3237,     961,     960,    3560,    3559
    3238,     960,     959,    3561,    3560
    3239,     959,     957,    3562,    3561
    3240,     957,    3532,    3563,    3562
    3241,    3532,    3533,    3564,    3563
    3242,    3533,    3534,    3565,    3564
    3243,    3534,    3535,    3566,    3565
    3244,    3535,    3536,    3567,    3566
    3245,    3536,    3537,    3568,    3567
    3246,    3537,    3538,    3569,    3568
    3247,    3538,    3539,    3570,    3569
    3248,    3539,    3540,    3571,    3570
    3249,    3540,    1019,    3572,    3571
    3250,    1019,    1026,    3573,    3572
    3251,    1026,    1025,    3574,    3573
** ... 81 like lines cut
*ELEMENT, TYPE=S4R, ELSET=EB106
    3333,    3645,    1144,    1143,    3644
    3334,    3646,     956,    1144,    3645
    3335,    3646,    3645,    3644,    3643
    3336,    3647,    3541,     956,    3646
    3337,    3647,    3646,    3643,    3642
    3338,    3648,    3542,    3541,    3647
    3339,    3648,    3647,    3642,    3641
    3340,    3649,    3543,    3542,    3648
    3341,    3649,    3648,    3641,    3640
    3342,    3650,    3544,    3543,    3649
    3343,    3650,    3649,    3640,    3639
    3344,    3651,    3545,    3544,    3650
    3345,    3651,    3650,    3639,    3638
    3346,    3652,    1027,    3545,    3651
    3347,    3652,    3651,    3638,    3637
    3348,    1027,    3652,    3653,    1107
    3349,    3637,    3636,    3653,    3652
    3350,    1087,    1107,    3653,    3636
*ELEMENT, TYPE=S4R, ELSET=EB107
    8196,    1164,    7500,    7501,    3693
    3352,    1088,    1089,    3670,    3669
    3353,    1089,    1090,    3671,    3670
    3354,    1090,    1091,    3672,    3671
    3355,    1091,    1092,    3673,    3672
    3356,    1092,    1093,    3674,    3673
    3357,    1093,    1094,    3675,    3674
    3358,    1094,    1087,    3676,    3675
    3359,    1087,    3636,    3677,    3676
    3360,    3636,    3637,    3678,    3677
    3361,    3637,    3638,    3679,    3678
    3362,    3638,    3639,    3680,    3679
    3363,    3639,    3640,    3681,    3680
    3364,    3640,    3641,    3682,    3681
    3365,    3641,    3642,    3683,    3682
    3366,    3642,    3643,    3684,    3683
    3367,    3643,    3644,    3685,    3684
    3368,    3644,    1143,    3686,    3685
    3369,    1143,    1158,    3687,    3686
    3370,    1158,    1159,    3688,    3687
** ... 85 like lines cut
*ELEMENT, TYPE=S4R, ELSET=EB108
    8165,    1206,    3772,    7485,    5166
    8161,    1204,    7481,    7483,    5160
    3454,    3765,    3764,    3758,    3757
    8166,    3750,    7484,    7485,    3772
    3456,    3766,    3765,    3757,    3756
    3457,    3767,    3762,    3763,    3766
    3458,    3767,    3766,    3756,    3755
    3459,    3768,    3761,    3762,    3767
    3460,    3768,    3767,    3755,    3754
    3461,    3769,    3760,    3761,    3768
    3462,    3769,    3768,    3754,    3753
    3463,    3770,    3759,    3760,    3769
    3464,    3770,    3769,    3753,    3752
    8162,    3771,    3772,    7483,    7481
    3466,    3771,    3770,    3752,    3751
    8164,    1205,    5166,    7485,    7484
    3468,    3751,    3750,    3772,    3771
    8163,    1206,    5160,    7483,    3772
    8035,    1267,    7416,    7418,    4656
    8036,    3758,    3764,    7418,    7416
** ... 10 like lines cut
*ELEMENT, TYPE=S4R, ELSET=EB109
    8191,    1153,    5248,    7499,    7498
    8193,    3654,    7498,    7499,    3773
    8192,    1213,    3773,    7499,    5248
    8190,    1213,    5245,    7497,    3773
    8189,    3774,    3773,    7497,    7495
    8188,    1212,    7495,    7497,    5245
    8187,    3774,    7495,    7496,    3775
    8186,    1211,    3775,    7496,    5242
    8185,    1212,    5242,    7496,    7495
    3479,    3750,    3751,    3782,    3781
    3480,    3751,    3752,    3783,    3782
    3481,    3752,    3753,    3784,    3783
    3482,    3753,    3754,    3785,    3784
    3483,    3754,    3755,    3786,    3785
    3484,    3755,    3756,    3787,    3786
    3485,    3756,    3757,    3788,    3787
    3486,    3757,    3758,    3789,    3788
    8184,    1211,    5239,    7494,    3775
    8183,    3776,    3775,    7494,    7492
    8182,    1210,    7492,    7494,    5239
** ... 117 like lines cut
*ELEMENT, TYPE=S4R, ELSET=EB110
    8154,    3864,    7477,    7478,    3863
    8153,    1392,    3863,    7478,    5089
    3573,    3864,    3863,    3862,    3861
    8152,    1204,    5089,    7478,    7477
    3575,    3865,    3864,    3861,    3860
    3576,    3866,    3760,    3759,    3865
    3577,    3866,    3865,    3860,    3859
    3578,    3867,    3761,    3760,    3866
    3579,    3867,    3866,    3859,    3858
    3580,    3868,    3762,    3761,    3867
    3581,    3868,    3867,    3858,    3857
    3582,    3869,    3763,    3762,    3868
    3583,    3869,    3868,    3857,    3856
    8157,    3759,    7479,    7480,    3865
    3585,    3870,    3869,    3856,    3855
    8155,    1204,    7477,    7480,    7479
    3587,    3855,    3854,    3871,    3870
    8156,    3864,    3865,    7480,    7477
    8044,    1275,    7421,    7424,    7423
    8045,    3763,    3869,    7424,    7421
** ... 10 like lines cut
*ELEMENT, TYPE=S4R, ELSET=EB111
    8147,    3889,    3888,    7475,    7472
    8146,    1391,    7472,    7475,    7474
    8148,    3862,    7474,    7475,    3888
    8145,    3889,    7472,    7473,    3890
    8144,    1406,    3890,    7473,    5101
    8143,    1391,    5101,    7473,    7472
    8142,    1406,    5108,    7471,    3890
    8141,    3891,    3890,    7471,    7469
    8140,    1407,    7469,    7471,    5108
    3598,    3854,    3855,    3881,    3880
    3599,    3855,    3856,    3882,    3881
    3600,    3856,    3857,    3883,    3882
    3601,    3857,    3858,    3884,    3883
    3602,    3858,    3859,    3885,    3884
    3603,    3859,    3860,    3886,    3885
    3604,    3860,    3861,    3887,    3886
    3605,    3861,    3862,    3888,    3887
    8139,    3891,    7469,    7470,    3892
    8137,    1407,    4743,    7470,    7469
    8136,    1408,    4739,    7468,    3892
** ... 145 like lines cut
*ELEMENT, TYPE=S4R, ELSET=EB118
    7913,    3962,    3973,    7354,    7353
    7912,    2094,    7353,    7354,    7351
    3692,    3968,    3967,    3961,    3960
    7909,    2094,    7351,    7352,    5868
    3694,    3969,    3968,    3960,    3959
    3695,    3970,    3965,    3966,    3969
    3696,    3970,    3969,    3959,    3958
    3697,    3971,    3964,    3965,    3970
    3698,    3971,    3970,    3958,    3957
    3699,    3972,    3963,    3964,    3971
    3700,    3972,    3971,    3957,    3956
    3701,    3973,    3962,    3963,    3972
    3702,    3973,    3972,    3956,    3955
    7911,    2096,    5868,    7352,    3975
    3704,    3974,    3973,    3955,    3954
    7910,    3974,    3975,    7352,    7351
    3706,    3954,    3953,    3975,    3974
    7914,    3974,    7351,    7354,    3973
    7801,    2165,    7297,    7298,    7295
    7802,    3968,    3969,    7298,    7297
** ... 10 like lines cut
*ELEMENT, TYPE=S4R, ELSET=EB119
    7905,    3983,    7346,    7349,    3984
    7901,    3983,    3982,    7347,    7346
    7902,    2097,    5865,    7347,    3982
    7904,    3953,    3984,    7349,    7348
    7903,    2095,    7348,    7349,    7346
    7900,    2095,    7346,    7347,    5865
    7899,    3981,    7343,    7345,    3982
    7898,    2097,    3982,    7345,    4870
    7897,    2098,    4870,    7345,    7343
    3717,    3953,    3954,    3985,    3984
    3718,    3954,    3955,    3986,    3985
    3719,    3955,    3956,    3987,    3986
    3720,    3956,    3957,    3988,    3987
    3721,    3957,    3958,    3989,    3988
    3722,    3958,    3959,    3990,    3989
    3723,    3959,    3960,    3991,    3990
    3724,    3960,    3961,    3992,    3991
    7896,    2099,    5902,    7344,    3980
    7894,    2098,    7343,    7344,    5902
    7893,    3979,    7340,    7342,    3980
** ... 145 like lines cut
*ELEMENT, TYPE=S4R, ELSET=EB120
    7918,    2094,    5467,    7357,    7355
    7921,    2224,    7358,    7359,    5472
    3811,    4067,    4066,    4065,    4064
    7920,    4067,    7355,    7357,    4066
    3813,    4068,    4067,    4064,    4063
    3814,    4069,    3963,    3962,    4068
    3815,    4069,    4068,    4063,    4062
    3816,    4070,    3964,    3963,    4069
    3817,    4070,    4069,    4062,    4061
    3818,    4071,    3965,    3964,    4070
    3819,    4071,    4070,    4061,    4060
    3820,    4072,    3966,    3965,    4071
    3821,    4072,    4071,    4060,    4059
    7923,    2225,    5472,    7359,    4066
    3823,    4073,    4072,    4059,    4058
    7922,    4065,    4066,    7359,    7358
    3825,    4058,    4057,    4074,    4073
    7919,    2225,    4066,    7357,    5467
    7792,    2286,    5745,    7292,    7290
    7793,    2306,    4074,    7292,    5745
** ... 10 like lines cut
*ELEMENT, TYPE=S4R, ELSET=EB121
    7936,    2242,    7366,    7367,    5931
    7971,    4089,    7383,    7384,    4090
    7970,    2287,    4090,    7384,    5501
    7969,    2285,    5501,    7384,    7383
    7950,    2245,    5917,    7373,    4114
    7949,    4075,    4114,    7373,    7372
    7948,    2234,    7372,    7373,    5917
    7947,    4113,    7369,    7371,    4114
    7946,    2245,    4114,    7371,    5922
    3836,    4057,    4058,    4099,    4098
    3837,    4058,    4059,    4100,    4099
    3838,    4059,    4060,    4101,    4100
    3839,    4060,    4061,    4102,    4101
    3840,    4061,    4062,    4103,    4102
    3841,    4062,    4063,    4104,    4103
    3842,    4063,    4064,    4105,    4104
    3843,    4064,    4065,    4106,    4105
    7945,    2244,    5922,    7371,    7369
    7944,    2243,    5925,    7370,    4112
    7943,    4113,    4112,    7370,    7369
** ... 117 like lines cut
*ELEMENT, TYPE=S4R, ELSET=EB122
    3928,    4185,    2414,    2405,    4179
    3929,    4186,    2413,    2414,    4185
    3930,    4186,    4185,    4179,    4178
    3931,    4187,    4184,    2413,    4186
    3932,    4187,    4186,    4178,    4177
    3933,    4188,    4183,    4184,    4187
    3934,    4188,    4187,    4177,    4176
    3935,    4189,    4182,    4183,    4188
    3936,    4189,    4188,    4176,    4175
    3937,    4190,    4181,    4182,    4189
    3938,    4190,    4189,    4175,    4174
    3939,    4191,    4180,    4181,    4190
    3940,    4191,    4190,    4174,    4173
    3941,    4192,    2342,    4180,    4191
    3942,    4192,    4191,    4173,    4172
    3943,    2342,    4192,    4193,    2344
    3944,    4172,    4171,    4193,    4192
    3945,    2343,    2344,    4193,    4171
*ELEMENT, TYPE=S4R, ELSET=EB123
    7974,    2406,    7385,    7386,    4218
    3947,    2351,    2350,    4195,    4194
    3948,    2350,    2349,    4196,    4195
    3949,    2349,    2348,    4197,    4196
    3950,    2348,    2347,    4198,    4197
    3951,    2347,    2346,    4199,    4198
    3952,    2346,    2345,    4200,    4199
    3953,    2345,    2343,    4201,    4200
    3954,    2343,    4171,    4202,    4201
    3955,    4171,    4172,    4203,    4202
    3956,    4172,    4173,    4204,    4203
    3957,    4173,    4174,    4205,    4204
    3958,    4174,    4175,    4206,    4205
    3959,    4175,    4176,    4207,    4206
    3960,    4176,    4177,    4208,    4207
    3961,    4177,    4178,    4209,    4208
    3962,    4178,    4179,    4210,    4209
    3963,    4179,    2405,    4211,    4210
    3964,    2405,    2412,    4212,    4211
    3965,    2412,    2411,    4213,    4212
** ... 85 like lines cut
*ELEMENT, TYPE=S4R, ELSET=EB124
    4047,    4284,    2473,    2472,    4283
    4048,    4285,    2342,    2473,    4284
    4049,    4285,    4284,    4283,    4282
    4050,    4286,    4180,    2342,    4285
    4051,    4286,    4285,    4282,    4281
    4052,    4287,    4181,    4180,    4286
    4053,    4287,    4286,    4281,    4280
    4054,    4288,    4182,    4181,    4287
    4055,    4288,    4287,    4280,    4279
    4056,    4289,    4183,    4182,    4288
    4057,    4289,    4288,    4279,    4278
    4058,    4290,    4184,    4183,    4289
    4059,    4290,    4289,    4278,    4277
    4060,    4291,    2413,    4184,    4290
    4061,    4291,    4290,    4277,    4276
    4062,    2413,    4291,    4292,    2554
    4063,    4276,    4275,    4292,    4291
    4064,    2534,    2554,    4292,    4275
*ELEMENT, TYPE=S4R, ELSET=EB125
    4065,    2533,    2535,    4308,    4307
    4066,    2535,    2536,    4309,    4308
    4067,    2536,    2537,    4310,    4309
    4068,    2537,    2538,    4311,    4310
    4069,    2538,    2539,    4312,    4311
    4070,    2539,    2540,    4313,    4312
    4071,    2540,    2541,    4314,    4313
    4072,    2541,    2534,    4315,    4314
    4073,    2534,    4275,    4316,    4315
    4074,    4275,    4276,    4317,    4316
    4075,    4276,    4277,    4318,    4317
    4076,    4277,    4278,    4319,    4318
    4077,    4278,    4279,    4320,    4319
    4078,    4279,    4280,    4321,    4320
    4079,    4280,    4281,    4322,    4321
    4080,    4281,    4282,    4323,    4322
    4081,    4282,    4283,    4324,    4323
    4082,    4283,    2472,    4325,    4324
    4083,    2472,    2487,    4326,    4325
    4084,    2487,    2488,    4327,    4326
** ... 81 like lines cut
*ELEMENT, TYPE=S4R, ELSET=EB126
    4166,    4403,    2662,    2653,    4397
    4167,    4404,    2661,    2662,    4403
    4168,    4404,    4403,    4397,    4396
    4169,    4405,    4402,    2661,    4404
    4170,    4405,    4404,    4396,    4395
    4171,    4406,    4401,    4402,    4405
    4172,    4406,    4405,    4395,    4394
    4173,    4407,    4400,    4401,    4406
    4174,    4407,    4406,    4394,    4393
    4175,    4408,    4399,    4400,    4407
    4176,    4408,    4407,    4393,    4392
    4177,    4409,    4398,    4399,    4408
    4178,    4409,    4408,    4392,    4391
    4179,    4410,    2590,    4398,    4409
    4180,    4410,    4409,    4391,    4390
    4181,    2590,    4410,    4411,    2592
    4182,    4390,    4389,    4411,    4410
    4183,    2591,    2592,    4411,    4389
*ELEMENT, TYPE=S4R, ELSET=EB127
    4184,    2482,    2599,    4412,    4293
    4185,    2599,    2598,    4413,    4412
    4186,    2598,    2597,    4414,    4413
    4187,    2597,    2596,    4415,    4414
    4188,    2596,    2595,    4416,    4415
    4189,    2595,    2594,    4417,    4416
    4190,    2594,    2593,    4418,    4417
    4191,    2593,    2591,    4419,    4418
    4192,    2591,    4389,    4420,    4419
    4193,    4389,    4390,    4421,    4420
    4194,    4390,    4391,    4422,    4421
    4195,    4391,    4392,    4423,    4422
    4196,    4392,    4393,    4424,    4423
    4197,    4393,    4394,    4425,    4424
    4198,    4394,    4395,    4426,    4425
    4199,    4395,    4396,    4427,    4426
    4200,    4396,    4397,    4428,    4427
    4201,    4397,    2653,    4429,    4428
    4202,    2653,    2660,    4430,    4429
    4203,    2660,    2659,    4431,    4430
** ... 81 like lines cut
**
********************************** P R O P E R T I E S ************************
*SHELL SECTION, ELSET=EB128, SECTION INTEGRATION=SIMPSON, MATERIAL=Default-Steel
1.000000e+00
*SHELL SECTION, ELSET=EB129, SECTION INTEGRATION=SIMPSON, MATERIAL=Default-Steel
1.000000e+00
*SHELL SECTION, ELSET=EB6, SECTION INTEGRATION=SIMPSON, MATERIAL=Default-Steel
1.000000e+00
*SHELL SECTION, ELSET=EB7, SECTION INTEGRATION=SIMPSON, MATERIAL=Default-Steel
1.000000e+00
*SHELL SECTION, ELSET=EB9, SECTION INTEGRATION=SIMPSON, MATERIAL=Default-Steel
1.000000e+00
*SHELL SECTION, ELSET=EB10, SECTION INTEGRATION=SIMPSON, MATERIAL=Default-Steel
1.000000e+00
*SHELL SECTION, ELSET=EB11, SECTION INTEGRATION=SIMPSON, MATERIAL=Default-Steel
1.000000e+00
*SHELL SECTION, ELSET=EB12, SECTION INTEGRATION=SIMPSON, MATERIAL=Default-Steel
1.000000e+00
*SHELL SECTION, ELSET=EB14, SECTION INTEGRATION=SIMPSON, MATERIAL=Default-Steel
1.000000e+00
*SHELL SECTION, ELSET=EB15, SECTION INTEGRATION=SIMPSON, MATERIAL=Default-Steel
1.000000e+00
*SHELL SECTION, ELSET=EB17, SECTION INTEGRATION=SIMPSON, MATERIAL=Default-Steel
1.000000e+00
*SHELL SECTION, ELSET=EB18, SECTION INTEGRATION=SIMPSON, MATERIAL=Default-Steel
1.000000e+00
*SHELL SECTION, ELSET=EB20, SECTION INTEGRATION=SIMPSON, MATERIAL=Default-Steel
1.000000e+00
*SHELL SECTION, ELSET=EB21, SECTION INTEGRATION=SIMPSON, MATERIAL=Default-Steel
1.000000e+00
*SHELL SECTION, ELSET=EB23, SECTION INTEGRATION=SIMPSON, MATERIAL=Default-Steel
1.000000e+00
*SHELL SECTION, ELSET=EB24, SECTION INTEGRATION=SIMPSON, MATERIAL=Default-Steel
1.000000e+00
*SHELL SECTION, ELSET=EB26, SECTION INTEGRATION=SIMPSON, MATERIAL=Default-Steel
1.000000e+00
*SHELL SECTION, ELSET=EB27, SECTION INTEGRATION=SIMPSON, MATERIAL=Default-Steel
1.000000e+00
*SHELL SECTION, ELSET=EB29, SECTION INTEGRATION=SIMPSON, MATERIAL=Default-Steel
1.000000e+00
*SHELL SECTION, ELSET=EB45, SECTION INTEGRATION=SIMPSON, MATERIAL=Default-Steel
1.000000e+00
** ... 102 like lines cut
**
*END PART
**
**
**
********************************** E N D   P A R T S **********************************
**
**
********************************** A S S E M B L Y ************************************
**
*ASSEMBLY, NAME=ASSEMBLY1
**
*INSTANCE, NAME=Part-Default_1, PART=Part-Default
*END INSTANCE
**
*END ASSEMBLY
**
**
**
*MATERIAL, NAME = Default-Steel
*ELASTIC, TYPE=ISOTROPIC
2.068000e+05, 2.900000e-01
*DENSITY
7.000000e-06
*CONDUCTIVITY,TYPE=ISO
4.500000e-02
*SPECIFIC HEAT
5.000000e+02
**
**
************************************** H I S T O R Y *************************************
**
*PREPRINT
**
**************************************** S T E P 1 ***************************************
*STEP,INC=100,NAME=Default Set
**
*STATIC
1, 1, 1e-05, 1
**
**
**
**
*END STEP
